Circuit: * C:\Users\_\Downloads\vlsi doubts\adc\counter_4_bit.asc

Limiting rise time of source v5 to 0.002
Limiting fall time of source v5 to 0.002
Instance "m:x4:18": Length shorter than recommended for a level 1 MOSFET.
Instance "m:x4:17": Length shorter than recommended for a level 1 MOSFET.
Instance "m:x4:16": Length shorter than recommended for a level 1 MOSFET.
Instance "m:x4:15": Length shorter than recommended for a level 1 MOSFET.
Instance "m:x4:14": Length shorter than recommended for a level 1 MOSFET.
Instance "m:x4:13": Length shorter than recommended for a level 1 MOSFET.
Instance "m:x4:12": Length shorter than recommended for a level 1 MOSFET.
Instance "m:x4:11": Length shorter than recommended for a level 1 MOSFET.
Instance "m:x4:10": Length shorter than recommended for a level 1 MOSFET.
Instance "m:x4:9": Length shorter than recommended for a level 1 MOSFET.
Instance "m:x4:8": Length shorter than recommended for a level 1 MOSFET.
Instance "m:x4:7": Length shorter than recommended for a level 1 MOSFET.
Instance "m:x4:6": Length shorter than recommended for a level 1 MOSFET.
Instance "m:x4:5": Length shorter than recommended for a level 1 MOSFET.
Instance "m:x4:4": Length shorter than recommended for a level 1 MOSFET.
Instance "m:x4:3": Length shorter than recommended for a level 1 MOSFET.
Instance "m:x4:2": Length shorter than recommended for a level 1 MOSFET.
Instance "m:x4:1": Length shorter than recommended for a level 1 MOSFET.
Instance "m:x3:18": Length shorter than recommended for a level 1 MOSFET.
Instance "m:x3:17": Length shorter than recommended for a level 1 MOSFET.
Instance "m:x3:16": Length shorter than recommended for a level 1 MOSFET.
Instance "m:x3:15": Length shorter than recommended for a level 1 MOSFET.
Instance "m:x3:14": Length shorter than recommended for a level 1 MOSFET.
Instance "m:x3:13": Length shorter than recommended for a level 1 MOSFET.
Instance "m:x3:12": Length shorter than recommended for a level 1 MOSFET.
Instance "m:x3:11": Length shorter than recommended for a level 1 MOSFET.
Instance "m:x3:10": Length shorter than recommended for a level 1 MOSFET.
Instance "m:x3:9": Length shorter than recommended for a level 1 MOSFET.
Instance "m:x3:8": Length shorter than recommended for a level 1 MOSFET.
Instance "m:x3:7": Length shorter than recommended for a level 1 MOSFET.
Instance "m:x3:6": Length shorter than recommended for a level 1 MOSFET.
Instance "m:x3:5": Length shorter than recommended for a level 1 MOSFET.
Instance "m:x3:4": Length shorter than recommended for a level 1 MOSFET.
Instance "m:x3:3": Length shorter than recommended for a level 1 MOSFET.
Instance "m:x3:2": Length shorter than recommended for a level 1 MOSFET.
Instance "m:x3:1": Length shorter than recommended for a level 1 MOSFET.
Instance "m:x2:18": Length shorter than recommended for a level 1 MOSFET.
Instance "m:x2:17": Length shorter than recommended for a level 1 MOSFET.
Instance "m:x2:16": Length shorter than recommended for a level 1 MOSFET.
Instance "m:x2:15": Length shorter than recommended for a level 1 MOSFET.
Instance "m:x2:14": Length shorter than recommended for a level 1 MOSFET.
Instance "m:x2:13": Length shorter than recommended for a level 1 MOSFET.
Instance "m:x2:12": Length shorter than recommended for a level 1 MOSFET.
Instance "m:x2:11": Length shorter than recommended for a level 1 MOSFET.
Instance "m:x2:10": Length shorter than recommended for a level 1 MOSFET.
Instance "m:x2:9": Length shorter than recommended for a level 1 MOSFET.
Instance "m:x2:8": Length shorter than recommended for a level 1 MOSFET.
Instance "m:x2:7": Length shorter than recommended for a level 1 MOSFET.
Instance "m:x2:6": Length shorter than recommended for a level 1 MOSFET.
Instance "m:x2:5": Length shorter than recommended for a level 1 MOSFET.
Instance "m:x2:4": Length shorter than recommended for a level 1 MOSFET.
Instance "m:x2:3": Length shorter than recommended for a level 1 MOSFET.
Instance "m:x2:2": Length shorter than recommended for a level 1 MOSFET.
Instance "m:x2:1": Length shorter than recommended for a level 1 MOSFET.
Instance "m:x1:18": Length shorter than recommended for a level 1 MOSFET.
Instance "m:x1:17": Length shorter than recommended for a level 1 MOSFET.
Instance "m:x1:16": Length shorter than recommended for a level 1 MOSFET.
Instance "m:x1:15": Length shorter than recommended for a level 1 MOSFET.
Instance "m:x1:14": Length shorter than recommended for a level 1 MOSFET.
Instance "m:x1:13": Length shorter than recommended for a level 1 MOSFET.
Instance "m:x1:12": Length shorter than recommended for a level 1 MOSFET.
Instance "m:x1:11": Length shorter than recommended for a level 1 MOSFET.
Instance "m:x1:10": Length shorter than recommended for a level 1 MOSFET.
Instance "m:x1:9": Length shorter than recommended for a level 1 MOSFET.
Instance "m:x1:8": Length shorter than recommended for a level 1 MOSFET.
Instance "m:x1:7": Length shorter than recommended for a level 1 MOSFET.
Instance "m:x1:6": Length shorter than recommended for a level 1 MOSFET.
Instance "m:x1:5": Length shorter than recommended for a level 1 MOSFET.
Instance "m:x1:4": Length shorter than recommended for a level 1 MOSFET.
Instance "m:x1:3": Length shorter than recommended for a level 1 MOSFET.
Instance "m:x1:2": Length shorter than recommended for a level 1 MOSFET.
Instance "m:x1:1": Length shorter than recommended for a level 1 MOSFET.
Direct Newton iteration failed to find .op point.  (Use ".option noopiter" to skip.)
Starting Gmin stepping
Gmin = 10
Gmin = 1.07374
Gmin = 0.115292
Gmin = 0.0123794
Gmin = 0.00132923
Gmin = 0.000142725
Gmin = 1.5325e-005
Gmin = 1.6455e-006
Gmin = 1.76685e-007
Gmin = 1.89714e-008
Gmin = 2.03704e-009
Gmin = 2.18725e-010
Gmin = 2.34854e-011
Gmin = 2.52173e-012
Gmin = 2.70769e-013
Gmin = 0
Gmin stepping succeeded in finding the operating point.

Heightened Def Con from 0.00500001 to 0.00500001
Heightened Def Con from 0.00500001 to 0.00500001
Heightened Def Con from 0.00500001 to 0.00500001
Heightened Def Con from 0.0100499 +++++++++++++++++++++++++++++to 0.0100499
Heightened Def Con from 0.0100499 ++++++++++++++++++++++++++++to 0.0100499
Heightened Def Con from 0.0100499 +++++++++++++++++++++++++++to 0.0100499
Heightened Def Con from 0.0100499 ++++++++++++++++++++++++++to 0.0100499
Heightened Def Con from 0.0100499 ++++++++++++++++++++++++to 0.0100499
Heightened Def Con from 0.0100499 +++++++++++++++++++++to 0.0100499
Heightened Def Con from 0.0100499 +++++++++++++++++++++to 0.0100499
Heightened Def Con from 0.0100499 +++++++++++++++++++++to 0.0100499
Heightened Def Con from 0.0100499 +++++++++++++++++++++to 0.0100499
Heightened Def Con from 0.0100499 +++++++++++++++++++++to 0.0100499
Heightened Def Con from 0.0100499 +++++++++++++++++++++to 0.0100499
Heightened Def Con from 0.0100499 +++++++++++++++++++++to 0.0100499
Heightened Def Con from 0.0100499 +++++++++++++++++++++to 0.0100499
Heightened Def Con from 0.0100499 +++++++++++++++++++++to 0.0100499
Heightened Def Con from 0.0100499 ++++++++++++++++++++to 0.0100499
Heightened Def Con from 0.0100499 ++++++++++++++++++++to 0.0100499
Heightened Def Con from 0.0100499 ++++++++++++++++++++to 0.0100499
Heightened Def Con from 0.0100499 ++++++++++++++++++++to 0.0100499
Heightened Def Con from 0.0100499 ++++++++++++++++++++to 0.0100499
Heightened Def Con from 0.0100499 ++++++++++++++++++++to 0.0100499
Heightened Def Con from 0.0100499 ++++++++++++++++++++to 0.0100499
Heightened Def Con from 0.0100499 ++++++++++++++++++++to 0.0100499
Heightened Def Con from 0.0100499 ++++++++++++++++++++to 0.0100499
Heightened Def Con from 0.0100499 ++++++++++++++++++++to 0.0100499
Heightened Def Con from 0.0100499 ++++++++++++++++++++to 0.0100499
Heightened Def Con from 0.0100499 ++++++++++++++++++++to 0.0100499
Heightened Def Con from 0.0100499 ++++++++++++++++++++to 0.0100499
Heightened Def Con from 0.0100499 +++++++++++++++++++to 0.0100499
Heightened Def Con from 0.0100499 +++++++++++++++++++to 0.0100499
Heightened Def Con from 0.0100499 +++++++++++++++++++to 0.0100499
Heightened Def Con from 0.0100499 +++++++++++++++++++to 0.0100499
Heightened Def Con from 0.0100499 +++++++++++++++++++to 0.0100499
Heightened Def Con from 0.0100499 +++++++++++++++++++to 0.0100499
Heightened Def Con from 0.0100499 ++++++++++++++++++to 0.0100499
Heightened Def Con from 0.0100499 ++++++++++++++++++to 0.0100499
Heightened Def Con from 0.0100499 ++++++++++++++++++to 0.0100499
Heightened Def Con from 0.0100499 ++++++++++++++++++to 0.0100499
Heightened Def Con from 0.0100499 +++++++++++++++++to 0.0100499
Heightened Def Con from 0.0100499 +++++++++++++++++to 0.0100499
Heightened Def Con from 0.0100499 +++++++++++++++++to 0.0100499
Heightened Def Con from 0.0100499 +++++++++++++++++to 0.0100499
Heightened Def Con from 0.0100499 +++++++++++++++++to 0.0100499
Heightened Def Con from 0.0100499 +++++++++++++++++to 0.0100499
Heightened Def Con from 0.0100499 +++++++++++++++++to 0.0100499
Heightened Def Con from 0.0100499 +++++++++++++++++to 0.0100499
Heightened Def Con from 0.0100499 +++++++++++++++++to 0.0100499
Heightened Def Con from 0.0100499 +++++++++++++++++to 0.0100499
Heightened Def Con from 0.0100499 +++++++++++++++++to 0.0100499
Heightened Def Con from 0.0100499 +++++++++++++++++to 0.0100499
Heightened Def Con from 0.0100499 +++++++++++++++++to 0.0100499
Heightened Def Con from 0.0100499 +++++++++++++++++to 0.0100499
Heightened Def Con from 0.0100499 +++++++++++++++++to 0.0100499
Heightened Def Con from 0.0100499 +++++++++++++++++to 0.0100499
Heightened Def Con from 0.0100499 +++++++++++++++++to 0.0100499
Heightened Def Con from 0.0100499 +++++++++++++++++to 0.0100499
Heightened Def Con from 0.0100499 +++++++++++++++++to 0.0100499
Heightened Def Con from 0.0100499 +++++++++++++++++to 0.0100499
Heightened Def Con from 0.0100499 +++++++++++++++++to 0.0100499
Heightened Def Con from 0.0100499 +++++++++++++++++to 0.0100499
Heightened Def Con from 0.0100499 +++++++++++++++++to 0.0100499
Heightened Def Con from 0.0100499 +++++++++++++++++to 0.0100499
Heightened Def Con from 0.0100499 +++++++++++++++++to 0.0100499
Heightened Def Con from 0.0100499 +++++++++++++++++to 0.0100499
Heightened Def Con from 0.0100499 +++++++++++++++++to 0.0100499
Heightened Def Con from 0.0100499 +++++++++++++++++to 0.0100499
Heightened Def Con from 0.0100499 +++++++++++++++++to 0.0100499
Heightened Def Con from 0.0100499 +++++++++++++++++to 0.01005
Heightened Def Con from 0.01005 +++++++++++++++++to 0.01005
Heightened Def Con from 0.01005 +++++++++++++++++to 0.01005
Heightened Def Con from 0.01005 +++++++++++++++++to 0.01005
Heightened Def Con from 0.01005 +++++++++++++++++to 0.01005
Heightened Def Con from 0.01005 +++++++++++++++++to 0.01005
Heightened Def Con from 0.01005 +++++++++++++++++to 0.01005
Heightened Def Con from 0.01005 +++++++++++++++++to 0.01005
Heightened Def Con from 0.01005 +++++++++++++++++to 0.01005
Heightened Def Con from 0.01005 +++++++++++++++++to 0.01005
Heightened Def Con from 0.01005 +++++++++++++++++to 0.01005
Heightened Def Con from 0.01005 +++++++++++++++++to 0.01005
Heightened Def Con from 0.01005 +++++++++++++++++to 0.01005
Heightened Def Con from 0.01005 +++++++++++++++++to 0.01005
Heightened Def Con from 0.01005 +++++++++++++++++to 0.01005
Heightened Def Con from 0.01005 +++++++++++++++++to 0.01005
Heightened Def Con from 0.01005 +++++++++++++++++to 0.01005
Heightened Def Con from 0.01005 +++++++++++++++++to 0.01005
Heightened Def Con from 0.01005 +++++++++++++++++to 0.01005
Heightened Def Con from 0.01005 +++++++++++++++++to 0.01005
Heightened Def Con from 0.01005 +++++++++++++++++to 0.01005
Heightened Def Con from 0.01005 +++++++++++++++++to 0.01005
Heightened Def Con from 0.01005 +++++++++++++++++to 0.01005
Heightened Def Con from 0.01005 ++++++++++++++++to 0.01005
Heightened Def Con from 0.0200499 +++++++++++++++++++++++++++++to 0.0200499
Heightened Def Con from 0.0200499 ++++++++++++++++++++++++++++to 0.0200499
Heightened Def Con from 0.0200499 +++++++++++++++++++++++++++to 0.0200499
Heightened Def Con from 0.0200499 ++++++++++++++++++++++++++to 0.0200499
Heightened Def Con from 0.0200499 ++++++++++++++++++++++++to 0.0200499
Heightened Def Con from 0.0200499 +++++++++++++++++++++to 0.0200499
Heightened Def Con from 0.0200499 +++++++++++++++++++++to 0.0200499
Heightened Def Con from 0.0200499 +++++++++++++++++++++to 0.0200499
Heightened Def Con from 0.0200499 +++++++++++++++++++++to 0.0200499
Heightened Def Con from 0.0200499 +++++++++++++++++++++to 0.0200499
Heightened Def Con from 0.0200499 +++++++++++++++++++++to 0.0200499
Heightened Def Con from 0.0200499 +++++++++++++++++++++to 0.0200499
Heightened Def Con from 0.0200499 +++++++++++++++++++++to 0.0200499
Heightened Def Con from 0.0200499 +++++++++++++++++++++to 0.0200499
Heightened Def Con from 0.0200499 ++++++++++++++++++++to 0.0200499
Heightened Def Con from 0.0200499 ++++++++++++++++++++to 0.0200499
Heightened Def Con from 0.0200499 ++++++++++++++++++++to 0.0200499
Heightened Def Con from 0.0200499 ++++++++++++++++++++to 0.0200499
Heightened Def Con from 0.0200499 ++++++++++++++++++++to 0.0200499
Heightened Def Con from 0.0200499 ++++++++++++++++++++to 0.0200499
Heightened Def Con from 0.0200499 ++++++++++++++++++++to 0.0200499
Heightened Def Con from 0.0200499 ++++++++++++++++++++to 0.0200499
Heightened Def Con from 0.0200499 ++++++++++++++++++++to 0.0200499
Heightened Def Con from 0.0200499 ++++++++++++++++++++to 0.0200499
Heightened Def Con from 0.0200499 ++++++++++++++++++++to 0.0200499
Heightened Def Con from 0.0200499 ++++++++++++++++++++to 0.0200499
Heightened Def Con from 0.0200499 ++++++++++++++++++++to 0.0200499
Heightened Def Con from 0.0200499 +++++++++++++++++++to 0.0200499
Heightened Def Con from 0.0200499 +++++++++++++++++++to 0.0200499
Heightened Def Con from 0.0200499 +++++++++++++++++++to 0.0200499
Heightened Def Con from 0.0200499 +++++++++++++++++++to 0.0200499
Heightened Def Con from 0.0200499 +++++++++++++++++++to 0.0200499
Heightened Def Con from 0.0200499 +++++++++++++++++++to 0.0200499
Heightened Def Con from 0.0200499 ++++++++++++++++++to 0.0200499
Heightened Def Con from 0.0200499 ++++++++++++++++++to 0.0200499
Heightened Def Con from 0.0200499 ++++++++++++++++++to 0.0200499
Heightened Def Con from 0.0200499 ++++++++++++++++++to 0.0200499
Heightened Def Con from 0.0200499 +++++++++++++++++to 0.0200499
Heightened Def Con from 0.0200499 +++++++++++++++++to 0.0200499
Heightened Def Con from 0.0200499 +++++++++++++++++to 0.0200499
Heightened Def Con from 0.0200499 +++++++++++++++++to 0.0200499
Heightened Def Con from 0.0200499 +++++++++++++++++to 0.0200499
Heightened Def Con from 0.0200499 +++++++++++++++++to 0.0200499
Heightened Def Con from 0.0200499 +++++++++++++++++to 0.0200499
Heightened Def Con from 0.0200499 +++++++++++++++++to 0.0200499
Heightened Def Con from 0.0200499 +++++++++++++++++to 0.0200499
Heightened Def Con from 0.0200499 +++++++++++++++++to 0.0200499
Heightened Def Con from 0.0200499 +++++++++++++++++to 0.0200499
Heightened Def Con from 0.0200499 +++++++++++++++++to 0.0200499
Heightened Def Con from 0.0200499 +++++++++++++++++to 0.0200499
Heightened Def Con from 0.0200499 +++++++++++++++++to 0.0200499
Heightened Def Con from 0.0200499 +++++++++++++++++to 0.0200499
Heightened Def Con from 0.0200499 +++++++++++++++++to 0.0200499
Heightened Def Con from 0.0200499 +++++++++++++++++to 0.0200499
Heightened Def Con from 0.0200499 +++++++++++++++++to 0.0200499
Heightened Def Con from 0.0200499 +++++++++++++++++to 0.0200499
Heightened Def Con from 0.0200499 +++++++++++++++++to 0.0200499
Heightened Def Con from 0.0200499 +++++++++++++++++to 0.0200499
Heightened Def Con from 0.0200499 +++++++++++++++++to 0.0200499
Heightened Def Con from 0.0200499 +++++++++++++++++to 0.0200499
Heightened Def Con from 0.0200499 +++++++++++++++++to 0.0200499
Heightened Def Con from 0.0200499 +++++++++++++++++to 0.0200499
Heightened Def Con from 0.0200499 +++++++++++++++++to 0.0200499
Heightened Def Con from 0.0200499 +++++++++++++++++to 0.0200499
Heightened Def Con from 0.0200499 +++++++++++++++++to 0.0200499
Heightened Def Con from 0.0200499 +++++++++++++++++to 0.0200499
Heightened Def Con from 0.0200499 +++++++++++++++++to 0.02005
Heightened Def Con from 0.02005 +++++++++++++++++to 0.02005
Heightened Def Con from 0.02005 +++++++++++++++++to 0.02005
Heightened Def Con from 0.02005 +++++++++++++++++to 0.02005
Heightened Def Con from 0.02005 +++++++++++++++++to 0.02005
Heightened Def Con from 0.02005 +++++++++++++++++to 0.02005
Heightened Def Con from 0.02005 +++++++++++++++++to 0.02005
Heightened Def Con from 0.02005 +++++++++++++++++to 0.02005
Heightened Def Con from 0.02005 +++++++++++++++++to 0.02005
Heightened Def Con from 0.02005 +++++++++++++++++to 0.02005
Heightened Def Con from 0.02005 +++++++++++++++++to 0.02005
Heightened Def Con from 0.02005 +++++++++++++++++to 0.02005
Heightened Def Con from 0.02005 +++++++++++++++++to 0.02005
Heightened Def Con from 0.02005 +++++++++++++++++to 0.02005
Heightened Def Con from 0.02005 +++++++++++++++++to 0.02005
Heightened Def Con from 0.02005 +++++++++++++++++to 0.02005
Heightened Def Con from 0.02005 +++++++++++++++++to 0.02005
Heightened Def Con from 0.02005 +++++++++++++++++to 0.02005
Heightened Def Con from 0.02005 +++++++++++++++++to 0.02005
Heightened Def Con from 0.02005 +++++++++++++++++to 0.02005
Heightened Def Con from 0.02005 +++++++++++++++++to 0.02005
Heightened Def Con from 0.02005 +++++++++++++++++to 0.02005
Heightened Def Con from 0.02005 +++++++++++++++++to 0.02005
Heightened Def Con from 0.02005 ++++++++++++++++to 0.02005
Heightened Def Con from 0.0288987 to 0.0288987
Heightened Def Con from 0.0288987 +++++++++++++++++++++++++++++++to 0.0288987
Heightened Def Con from 0.0288987 +++++++++++++++++++++++++++++to 0.0288987
Heightened Def Con from 0.0288987 +++++++++++++++++++++++++++++to 0.0288987
Heightened Def Con from 0.0288987 +++++++++++++++++++++++++++++to 0.0288987
Heightened Def Con from 0.0288987 +++++++++++++++++++++++++++++to 0.0288987
Heightened Def Con from 0.0288987 +++++++++++++++++++++++++++++to 0.0288987
Heightened Def Con from 0.0288987 +++++++++++++++++++++++++++++to 0.0288987
Heightened Def Con from 0.0288987 +++++++++++++++++++++++++++++to 0.0288987
Heightened Def Con from 0.0288987 +++++++++++++++++++++++++++++to 0.0288987
Heightened Def Con from 0.0288987 +++++++++++++++++++++++++++++to 0.0288987
Heightened Def Con from 0.0288987 +++++++++++++++++++++++++++++to 0.0288987
Heightened Def Con from 0.0288987 +++++++++++++++++++++++++++++to 0.0288987
Heightened Def Con from 0.0288987 +++++++++++++++++++++++++++++to 0.0288987
Heightened Def Con from 0.0288987 +++++++++++++++++++++++++++++to 0.0288987
Heightened Def Con from 0.0288987 +++++++++++++++++++++++++++++to 0.0288987
Heightened Def Con from 0.0288987 +++++++++++++++++++++++++++++to 0.0288987
Heightened Def Con from 0.0288987 +++++++++++++++++++++++++++++to 0.0288987
Heightened Def Con from 0.0288987 +++++++++++++++++++++++++++++to 0.0288987
Heightened Def Con from 0.0288987 +++++++++++++++++++++++++++++to 0.0288987
Heightened Def Con from 0.0288987 +++++++++++++++++++++++++++++to 0.0288987
Heightened Def Con from 0.0288987 +++++++++++++++++++++++++++++to 0.0288987
Heightened Def Con from 0.0288987 +++++++++++++++++++++++++++++to 0.0288987
Heightened Def Con from 0.0288987 +++++++++++++++++++++++++++++to 0.0288987
Heightened Def Con from 0.0288987 +++++++++++++++++++++++++++++to 0.0288987
Heightened Def Con from 0.0288987 +++++++++++++++++++++++++++++to 0.0288987
Heightened Def Con from 0.0288987 +++++++++++++++++++++++++++++to 0.0288987
Heightened Def Con from 0.0288987 +++++++++++++++++++++++++++++to 0.0288987
Heightened Def Con from 0.0288987 +++++++++++++++++++++++++++++to 0.0288987
Heightened Def Con from 0.0288987 +++++++++++++++++++++++++++++to 0.0288987
Heightened Def Con from 0.0288987 +++++++++++++++++++++++++++++to 0.0288987
Heightened Def Con from 0.0288987 +++++++++++++++++++++++++++++to 0.0288987
Heightened Def Con from 0.0288987 +++++++++++++++++++++++++++++to 0.0288987
Heightened Def Con from 0.0288987 +++++++++++++++++++++++++++++to 0.0288987
Heightened Def Con from 0.0288987 +++++++++++++++++++++++++++++to 0.0288987
Heightened Def Con from 0.0288987 +++++++++++++++++++++++++++++to 0.0288987
Heightened Def Con from 0.0288987 +++++++++++++++++++++++++++++to 0.0288987
Heightened Def Con from 0.0288987 +++++++++++++++++++++++++++++to 0.0288987
Heightened Def Con from 0.0288987 +++++++++++++++++++++++++++++to 0.0288987
Heightened Def Con from 0.0288987 +++++++++++++++++++++++++++++to 0.0288987
Heightened Def Con from 0.0288987 +++++++++++++++++++++++++++++to 0.0288987
Heightened Def Con from 0.0288987 +++++++++++++++++++++++++++++to 0.0288987
Heightened Def Con from 0.0288987 +++++++++++++++++++++++++++++to 0.0288987
Heightened Def Con from 0.0288987 +++++++++++++++++++++++++++++to 0.0288987
Heightened Def Con from 0.0288987 +++++++++++++++++++++++++++++to 0.0288987
Heightened Def Con from 0.0288987 +++++++++++++++++++++++++++++to 0.0288987
Heightened Def Con from 0.0288987 +++++++++++++++++++++++++++++to 0.0288987
Heightened Def Con from 0.0288987 +++++++++++++++++++++++++++++to 0.0288987
Heightened Def Con from 0.0288987 +++++++++++++++++++++++++++++to 0.0288987
Heightened Def Con from 0.0288987 +++++++++++++++++++++++++++++to 0.0288987
Heightened Def Con from 0.0288987 +++++++++++++++++++++++++++++to 0.0288987
Heightened Def Con from 0.0288987 +++++++++++++++++++++++++++++to 0.0288987
Heightened Def Con from 0.0288987 +++++++++++++++++++++++++++++to 0.0288987
Heightened Def Con from 0.0288987 +++++++++++++++++++++++++++++to 0.0288987
Heightened Def Con from 0.0288987 +++++++++++++++++++++++++++++to 0.0288987
Heightened Def Con from 0.0288987 +++++++++++++++++++++++++++++to 0.0288987
Heightened Def Con from 0.0288987 +++++++++++++++++++++++++++++to 0.0288987
Heightened Def Con from 0.0288987 +++++++++++++++++++++++++++++to 0.0288987
Heightened Def Con from 0.0288987 +++++++++++++++++++++++++++++to 0.0288987
Heightened Def Con from 0.0288987 +++++++++++++++++++++++++++++to 0.0288987
Heightened Def Con from 0.0288987 +++++++++++++++++++++++++++++to 0.0288987
Heightened Def Con from 0.0288987 +++++++++++++++++++++++++++++to 0.0288987
Heightened Def Con from 0.0288987 +++++++++++++++++++++++++++++to 0.0288987
Heightened Def Con from 0.0288987 +++++++++++++++++++++++++++++to 0.0288987
Heightened Def Con from 0.0288987 +++++++++++++++++++++++++++++to 0.0288987
Heightened Def Con from 0.0288987 +++++++++++++++++++++++++++++to 0.0288987
Heightened Def Con from 0.0288987 +++++++++++++++++++++++++++++to 0.0288987
Heightened Def Con from 0.0288987 +++++++++++++++++++++++++++++to 0.0288987
Heightened Def Con from 0.0288987 +++++++++++++++++++++++++++++to 0.0288987
Heightened Def Con from 0.0288987 +++++++++++++++++++++++++++++to 0.0288987
Heightened Def Con from 0.0288987 +++++++++++++++++++++++++++++to 0.0288987
Heightened Def Con from 0.0288987 +++++++++++++++++++++++++++++to 0.0288987
Heightened Def Con from 0.0288987 +++++++++++++++++++++++++++++to 0.0288987
Heightened Def Con from 0.0288987 +++++++++++++++++++++++++++++to 0.0288987
Heightened Def Con from 0.0288987 +++++++++++++++++++++++++++++to 0.0288987
Heightened Def Con from 0.0288987 +++++++++++++++++++++++++++++to 0.0288987
Heightened Def Con from 0.0288987 +++++++++++++++++++++++++++++to 0.0288987
Heightened Def Con from 0.0288987 +++++++++++++++++++++++++++++to 0.0288987
Heightened Def Con from 0.0288987 +++++++++++++++++++++++++++++to 0.0288987
Heightened Def Con from 0.0288987 +++++++++++++++++++++++++++++to 0.0288987
Heightened Def Con from 0.0288987 +++++++++++++++++++++++++++++to 0.0288987
Heightened Def Con from 0.0288987 +++++++++++++++++++++++++++++to 0.0288987
Heightened Def Con from 0.0288987 +++++++++++++++++++++++++++++to 0.0288987
Heightened Def Con from 0.0288987 +++++++++++++++++++++++++++++to 0.0288987
Heightened Def Con from 0.0288987 +++++++++++++++++++++++++++++to 0.0288987
Heightened Def Con from 0.0288987 +++++++++++++++++++++++++++++to 0.0288987
Heightened Def Con from 0.0288987 +++++++++++++++++++++++++++++to 0.0288987
Heightened Def Con from 0.0288987 +++++++++++++++++++++++++++++to 0.0288987
Heightened Def Con from 0.0288987 +++++++++++++++++++++++++++++to 0.0288987
Heightened Def Con from 0.0288987 +++++++++++++++++++++++++++++to 0.0288987
Heightened Def Con from 0.0288987 +++++++++++++++++++++++++++++to 0.0288987
Heightened Def Con from 0.0288987 +++++++++++++++++++++++++++++to 0.0288987
Heightened Def Con from 0.0288987 +++++++++++++++++++++++++++++to 0.0288987
Heightened Def Con from 0.0288987 +++++++++++++++++++++++++++++to 0.0288987
Heightened Def Con from 0.0288987 +++++++++++++++++++++++++++++to 0.0288987
Heightened Def Con from 0.0288987 +++++++++++++++++++++++++++++to 0.0288987
Heightened Def Con from 0.0288987 +++++++++++++++++++++++++++++to 0.0288987
Heightened Def Con from 0.0288987 +++++++++++++++++++++++++++++to 0.0288987
Heightened Def Con from 0.0288987 +++++++++++++++++++++++++++++to 0.0288988
Heightened Def Con from 0.0288988 +++++++++++++++++++++++++++++to 0.0288988
Heightened Def Con from 0.0288988 +++++++++++++++++++++++++++++to 0.0288988
Heightened Def Con from 0.0288988 +++++++++++++++++++++++++++++to 0.0288988
Heightened Def Con from 0.0288988 +++++++++++++++++++++++++++++to 0.0288988
Heightened Def Con from 0.0288988 +++++++++++++++++++++++++++++to 0.0288988
Heightened Def Con from 0.0288988 +++++++++++++++++++++++++++++to 0.0288988
Heightened Def Con from 0.0288988 +++++++++++++++++++++++++++++to 0.0288988
Heightened Def Con from 0.0288988 +++++++++++++++++++++++++++++to 0.0288988
Heightened Def Con from 0.0288988 +++++++++++++++++++++++++++++to 0.0288988
Heightened Def Con from 0.0288988 +++++++++++++++++++++++++++++to 0.0288988
Heightened Def Con from 0.0288988 +++++++++++++++++++++++++++++to 0.0288988
Heightened Def Con from 0.0288988 +++++++++++++++++++++++++++++to 0.0288988
Heightened Def Con from 0.0288988 +++++++++++++++++++++++++++++to 0.0288988
Heightened Def Con from 0.0288988 +++++++++++++++++++++++++++++to 0.0288988
Heightened Def Con from 0.0288988 +++++++++++++++++++++++++++++to 0.0288988
Heightened Def Con from 0.0288988 +++++++++++++++++++++++++++++to 0.0288988
Heightened Def Con from 0.0288988 +++++++++++++++++++++++++++++to 0.0288988
Heightened Def Con from 0.0288988 +++++++++++++++++++++++++++++to 0.0288988
Heightened Def Con from 0.0288988 +++++++++++++++++++++++++++++to 0.0288988
Heightened Def Con from 0.0288988 +++++++++++++++++++++++++++++to 0.0288988
Heightened Def Con from 0.0288988 +++++++++++++++++++++++++++++to 0.0288988
Heightened Def Con from 0.0288988 +++++++++++++++++++++++++++++to 0.0288988
Heightened Def Con from 0.0288988 +++++++++++++++++++++++++++++to 0.0288988
Heightened Def Con from 0.0288988 +++++++++++++++++++++++++++++to 0.0288988
Heightened Def Con from 0.0288988 +++++++++++++++++++++++++++++to 0.0288988
Heightened Def Con from 0.0288988 +++++++++++++++++++++++++++++to 0.0288988
Heightened Def Con from 0.0288988 +++++++++++++++++++++++++++++to 0.0288988
Heightened Def Con from 0.0288988 +++++++++++++++++++++++++++++to 0.0288988
Heightened Def Con from 0.0288988 +++++++++++++++++++++++++++++to 0.0288988
Heightened Def Con from 0.0288988 +++++++++++++++++++++++++++++to 0.0288988
Heightened Def Con from 0.0288988 +++++++++++++++++++++++++++++to 0.0288988
Heightened Def Con from 0.0288988 +++++++++++++++++++++++++++++to 0.0288988
Heightened Def Con from 0.0288988 +++++++++++++++++++++++++++++to 0.0288988
Heightened Def Con from 0.0288988 +++++++++++++++++++++++++++++to 0.0288988
Heightened Def Con from 0.0288988 +++++++++++++++++++++++++++++to 0.0288988
Heightened Def Con from 0.0288988 +++++++++++++++++++++++++++++to 0.0288988
Heightened Def Con from 0.0288988 +++++++++++++++++++++++++++++to 0.0288988
Heightened Def Con from 0.0288988 +++++++++++++++++++++++++++++to 0.0288988
Heightened Def Con from 0.0288988 +++++++++++++++++++++++++++++to 0.0288988
Heightened Def Con from 0.0288988 +++++++++++++++++++++++++++++to 0.0288988
Heightened Def Con from 0.0288988 +++++++++++++++++++++++++++++to 0.0288988
Heightened Def Con from 0.0288988 +++++++++++++++++++++++++++++to 0.0288988
Heightened Def Con from 0.0288988 +++++++++++++++++++++++++++++to 0.0288988
Heightened Def Con from 0.0288988 +++++++++++++++++++++++++++++to 0.0288988
Heightened Def Con from 0.0288988 +++++++++++++++++++++++++++++to 0.0288988
Heightened Def Con from 0.0288988 +++++++++++++++++++++++++++++to 0.0288988
Heightened Def Con from 0.0288988 +++++++++++++++++++++++++++++to 0.0288988
Heightened Def Con from 0.0288988 +++++++++++++++++++++++++++++to 0.0288988
Heightened Def Con from 0.0288988 +++++++++++++++++++++++++++++to 0.0288988
Heightened Def Con from 0.0288988 +++++++++++++++++++++++++++++to 0.0288988
Heightened Def Con from 0.0288988 +++++++++++++++++++++++++++++to 0.0288988
Heightened Def Con from 0.0288988 +++++++++++++++++++++++++++++to 0.0288988
Heightened Def Con from 0.0288988 +++++++++++++++++++++++++++++to 0.0288988
Heightened Def Con from 0.0288988 +++++++++++++++++++++++++++++to 0.0288988
Heightened Def Con from 0.0288988 +++++++++++++++++++++++++++++to 0.0288988
Heightened Def Con from 0.0288988 +++++++++++++++++++++++++++++to 0.0288988
Heightened Def Con from 0.0288988 +++++++++++++++++++++++++++++to 0.0288988
Heightened Def Con from 0.0288988 +++++++++++++++++++++++++++++to 0.0288988
Heightened Def Con from 0.0288988 +++++++++++++++++++++++++++++to 0.0288988
Heightened Def Con from 0.0288988 +++++++++++++++++++++++++++++to 0.0288988
Heightened Def Con from 0.0288988 +++++++++++++++++++++++++++++to 0.0288988
Heightened Def Con from 0.0288988 +++++++++++++++++++++++++++++to 0.0288988
Heightened Def Con from 0.0288988 +++++++++++++++++++++++++++++to 0.0288988
Heightened Def Con from 0.0288988 +++++++++++++++++++++++++++++to 0.0288988
Heightened Def Con from 0.0288988 +++++++++++++++++++++++++++++to 0.0288988
Heightened Def Con from 0.0288988 +++++++++++++++++++++++++++++to 0.0288988
Heightened Def Con from 0.0288988 +++++++++++++++++++++++++++++to 0.0288988
Heightened Def Con from 0.0288988 +++++++++++++++++++++++++++++to 0.0288988
Heightened Def Con from 0.0288988 +++++++++++++++++++++++++++++to 0.0288988
Heightened Def Con from 0.0288988 +++++++++++++++++++++++++++++to 0.0288988
Heightened Def Con from 0.0288988 +++++++++++++++++++++++++++++to 0.0288988
Heightened Def Con from 0.0288988 +++++++++++++++++++++++++++++to 0.0288988
Heightened Def Con from 0.0288988 +++++++++++++++++++++++++++++to 0.0288988
Heightened Def Con from 0.0288988 +++++++++++++++++++++++++++++to 0.0288988
Heightened Def Con from 0.0288988 +++++++++++++++++++++++++++++to 0.0288988
Heightened Def Con from 0.0288988 +++++++++++++++++++++++++++++to 0.0288988
Heightened Def Con from 0.0288988 +++++++++++++++++++++++++++++to 0.0288988
Heightened Def Con from 0.0288988 +++++++++++++++++++++++++++++to 0.0288988
Heightened Def Con from 0.0288988 +++++++++++++++++++++++++++++to 0.0288988
Heightened Def Con from 0.0288988 +++++++++++++++++++++++++++++to 0.0288988
Heightened Def Con from 0.0288988 +++++++++++++++++++++++++++++to 0.0288988
Heightened Def Con from 0.0288988 +++++++++++++++++++++++++++++to 0.0288988
Heightened Def Con from 0.0288988 +++++++++++++++++++++++++++++to 0.0288988
Heightened Def Con from 0.0288988 +++++++++++++++++++++++++++++to 0.0288988
Heightened Def Con from 0.0288988 +++++++++++++++++++++++++++++to 0.0288988
Heightened Def Con from 0.0288988 +++++++++++++++++++++++++++++to 0.0288988
Heightened Def Con from 0.0288988 +++++++++++++++++++++++++++++to 0.0288988
Heightened Def Con from 0.0288988 +++++++++++++++++++++++++++++to 0.0288988
Heightened Def Con from 0.0288988 +++++++++++++++++++++++++++++to 0.0288988
Heightened Def Con from 0.0288988 +++++++++++++++++++++++++++++to 0.0288988
Heightened Def Con from 0.0288988 +++++++++++++++++++++++++++++to 0.0288988
Heightened Def Con from 0.0288988 +++++++++++++++++++++++++++++to 0.0288988
Heightened Def Con from 0.0288988 +++++++++++++++++++++++++++++to 0.0288988
Heightened Def Con from 0.0288988 +++++++++++++++++++++++++++++to 0.0288988
Heightened Def Con from 0.0288988 +++++++++++++++++++++++++++++to 0.0288988
Heightened Def Con from 0.0288988 +++++++++++++++++++++++++++++to 0.0288988
Heightened Def Con from 0.0288988 +++++++++++++++++++++++++++++to 0.0288988
Heightened Def Con from 0.0288988 +++++++++++++++++++++++++++++to 0.0288988
Heightened Def Con from 0.0288988 +++++++++++++++++++++++++++++to 0.0288988
Heightened Def Con from 0.0288988 +++++++++++++++++++++++++++++to 0.0288989
Heightened Def Con from 0.0288989 +++++++++++++++++++++++++++++to 0.0288989
Heightened Def Con from 0.0288989 +++++++++++++++++++++++++++++to 0.0288989
Heightened Def Con from 0.0288989 +++++++++++++++++++++++++++++to 0.0288989
Heightened Def Con from 0.0288989 +++++++++++++++++++++++++++++to 0.0288989
Heightened Def Con from 0.0288989 +++++++++++++++++++++++++++++to 0.0288989
Heightened Def Con from 0.0288989 +++++++++++++++++++++++++++++to 0.0288989
Heightened Def Con from 0.0288989 +++++++++++++++++++++++++++++to 0.0288989
Heightened Def Con from 0.0288989 +++++++++++++++++++++++++++++to 0.0288989
Heightened Def Con from 0.0288989 +++++++++++++++++++++++++++++to 0.0288989
Heightened Def Con from 0.0288989 +++++++++++++++++++++++++++++to 0.0288989
Heightened Def Con from 0.0288989 +++++++++++++++++++++++++++++to 0.0288989
Heightened Def Con from 0.0288989 +++++++++++++++++++++++++++++to 0.0288989
Heightened Def Con from 0.0288989 +++++++++++++++++++++++++++++to 0.0288989
Heightened Def Con from 0.0288989 +++++++++++++++++++++++++++++to 0.0288989
Heightened Def Con from 0.0288989 +++++++++++++++++++++++++++++to 0.0288989
Heightened Def Con from 0.0288989 +++++++++++++++++++++++++++++to 0.0288989
Heightened Def Con from 0.0288989 +++++++++++++++++++++++++++++to 0.0288989
Heightened Def Con from 0.0288989 +++++++++++++++++++++++++++++to 0.0288989
Heightened Def Con from 0.0288989 +++++++++++++++++++++++++++++to 0.0288989
Heightened Def Con from 0.0288989 +++++++++++++++++++++++++++++to 0.0288989
Heightened Def Con from 0.0288989 +++++++++++++++++++++++++++++to 0.0288989
Heightened Def Con from 0.0288989 +++++++++++++++++++++++++++++to 0.0288989
Heightened Def Con from 0.0288989 +++++++++++++++++++++++++++++to 0.0288989
Heightened Def Con from 0.0288989 +++++++++++++++++++++++++++++to 0.0288989
Heightened Def Con from 0.0288989 +++++++++++++++++++++++++++++to 0.0288989
Heightened Def Con from 0.0288989 +++++++++++++++++++++++++++++to 0.0288989
Heightened Def Con from 0.0288989 +++++++++++++++++++++++++++++to 0.0288989
Heightened Def Con from 0.0288989 +++++++++++++++++++++++++++++to 0.0288989
Heightened Def Con from 0.0288989 +++++++++++++++++++++++++++++to 0.0288989
Heightened Def Con from 0.0288989 +++++++++++++++++++++++++++++to 0.0288989
Heightened Def Con from 0.0288989 +++++++++++++++++++++++++++++to 0.0288989
Heightened Def Con from 0.0288989 +++++++++++++++++++++++++++++to 0.0288989
Heightened Def Con from 0.0288989 +++++++++++++++++++++++++++++to 0.0288989
Heightened Def Con from 0.0288989 +++++++++++++++++++++++++++++to 0.0288989
Heightened Def Con from 0.0288989 +++++++++++++++++++++++++++++to 0.0288989
Heightened Def Con from 0.0288989 +++++++++++++++++++++++++++++to 0.0288989
Heightened Def Con from 0.0288989 +++++++++++++++++++++++++++++to 0.0288989
Heightened Def Con from 0.0288989 +++++++++++++++++++++++++++++to 0.0288989
Heightened Def Con from 0.0288989 +++++++++++++++++++++++++++++to 0.0288989
Heightened Def Con from 0.0288989 +++++++++++++++++++++++++++++to 0.0288989
Heightened Def Con from 0.0288989 +++++++++++++++++++++++++++++to 0.0288989
Heightened Def Con from 0.0288989 +++++++++++++++++++++++++++++to 0.0288989
Heightened Def Con from 0.0288989 +++++++++++++++++++++++++++++to 0.0288989
Heightened Def Con from 0.0288989 +++++++++++++++++++++++++++++to 0.0288989
Heightened Def Con from 0.0288989 +++++++++++++++++++++++++++++to 0.0288989
Heightened Def Con from 0.0288989 +++++++++++++++++++++++++++++to 0.0288989
Heightened Def Con from 0.0288989 +++++++++++++++++++++++++++++to 0.0288989
Heightened Def Con from 0.0288989 +++++++++++++++++++++++++++++to 0.0288989
Heightened Def Con from 0.0288989 +++++++++++++++++++++++++++++to 0.0288989
Heightened Def Con from 0.0288989 +++++++++++++++++++++++++++++to 0.0288989
Heightened Def Con from 0.0288989 +++++++++++++++++++++++++++++to 0.0288989
Heightened Def Con from 0.0288989 +++++++++++++++++++++++++++++to 0.0288989
Heightened Def Con from 0.0288989 +++++++++++++++++++++++++++++to 0.0288989
Heightened Def Con from 0.0288989 +++++++++++++++++++++++++++++to 0.0288989
Heightened Def Con from 0.0288989 +++++++++++++++++++++++++++++to 0.0288989
Heightened Def Con from 0.0288989 +++++++++++++++++++++++++++++to 0.0288989
Heightened Def Con from 0.0288989 +++++++++++++++++++++++++++++to 0.0288989
Heightened Def Con from 0.0288989 +++++++++++++++++++++++++++++to 0.0288989
Heightened Def Con from 0.0288989 +++++++++++++++++++++++++++++to 0.0288989
Heightened Def Con from 0.0288989 +++++++++++++++++++++++++++++to 0.0288989
Heightened Def Con from 0.0288989 +++++++++++++++++++++++++++++to 0.0288989
Heightened Def Con from 0.0288989 +++++++++++++++++++++++++++++to 0.0288989
Heightened Def Con from 0.0288989 +++++++++++++++++++++++++++++to 0.0288989
Heightened Def Con from 0.0288989 +++++++++++++++++++++++++++++to 0.0288989
Heightened Def Con from 0.0288989 +++++++++++++++++++++++++++++to 0.0288989
Heightened Def Con from 0.0288989 +++++++++++++++++++++++++++++to 0.0288989
Heightened Def Con from 0.0288989 +++++++++++++++++++++++++++++to 0.0288989
Heightened Def Con from 0.0288989 +++++++++++++++++++++++++++++to 0.0288989
Heightened Def Con from 0.0288989 +++++++++++++++++++++++++++++to 0.0288989
Heightened Def Con from 0.0288989 +++++++++++++++++++++++++++++to 0.0288989
Heightened Def Con from 0.0288989 +++++++++++++++++++++++++++++to 0.0288989
Heightened Def Con from 0.0288989 +++++++++++++++++++++++++++++to 0.0288989
Heightened Def Con from 0.0288989 +++++++++++++++++++++++++++++to 0.0288989
Heightened Def Con from 0.0288989 +++++++++++++++++++++++++++++to 0.0288989
Heightened Def Con from 0.0288989 +++++++++++++++++++++++++++++to 0.0288989
Heightened Def Con from 0.0288989 +++++++++++++++++++++++++++++to 0.0288989
Heightened Def Con from 0.0288989 +++++++++++++++++++++++++++++to 0.0288989
Heightened Def Con from 0.0288989 +++++++++++++++++++++++++++++to 0.0288989
Heightened Def Con from 0.0288989 +++++++++++++++++++++++++++++to 0.0288989
Heightened Def Con from 0.0288989 +++++++++++++++++++++++++++++to 0.0288989
Heightened Def Con from 0.0288989 +++++++++++++++++++++++++++++to 0.0288989
Heightened Def Con from 0.0288989 +++++++++++++++++++++++++++++to 0.0288989
Heightened Def Con from 0.0288989 +++++++++++++++++++++++++++++to 0.0288989
Heightened Def Con from 0.0288989 +++++++++++++++++++++++++++++to 0.0288989
Heightened Def Con from 0.0288989 +++++++++++++++++++++++++++++to 0.0288989
Heightened Def Con from 0.0288989 +++++++++++++++++++++++++++++to 0.0288989
Heightened Def Con from 0.0288989 +++++++++++++++++++++++++++++to 0.0288989
Heightened Def Con from 0.0288989 +++++++++++++++++++++++++++++to 0.0288989
Heightened Def Con from 0.0288989 +++++++++++++++++++++++++++++to 0.0288989
Heightened Def Con from 0.0288989 +++++++++++++++++++++++++++++to 0.0288989
Heightened Def Con from 0.0288989 +++++++++++++++++++++++++++++to 0.0288989
Heightened Def Con from 0.0288989 +++++++++++++++++++++++++++++to 0.0288989
Heightened Def Con from 0.0288989 +++++++++++++++++++++++++++++to 0.0288989
Heightened Def Con from 0.0288989 +++++++++++++++++++++++++++++to 0.0288989
Heightened Def Con from 0.0288989 +++++++++++++++++++++++++++++to 0.0288989
Heightened Def Con from 0.0288989 +++++++++++++++++++++++++++++to 0.0288989
Heightened Def Con from 0.0288989 +++++++++++++++++++++++++++++to 0.0288989
Heightened Def Con from 0.0288989 +++++++++++++++++++++++++++++to 0.0288989
Heightened Def Con from 0.0288989 +++++++++++++++++++++++++++++to 0.0288989
Heightened Def Con from 0.0288989 +++++++++++++++++++++++++++++to 0.028899
Heightened Def Con from 0.028899 +++++++++++++++++++++++++++++to 0.028899
Heightened Def Con from 0.028899 +++++++++++++++++++++++++++++to 0.028899
Heightened Def Con from 0.028899 +++++++++++++++++++++++++++++to 0.028899
Heightened Def Con from 0.028899 +++++++++++++++++++++++++++++to 0.028899
Heightened Def Con from 0.028899 +++++++++++++++++++++++++++++to 0.028899
Heightened Def Con from 0.028899 +++++++++++++++++++++++++++++to 0.028899
Heightened Def Con from 0.028899 +++++++++++++++++++++++++++++to 0.028899
Heightened Def Con from 0.028899 +++++++++++++++++++++++++++++to 0.028899
Heightened Def Con from 0.028899 +++++++++++++++++++++++++++++to 0.028899
Heightened Def Con from 0.028899 +++++++++++++++++++++++++++++to 0.028899
Heightened Def Con from 0.028899 +++++++++++++++++++++++++++++to 0.028899
Heightened Def Con from 0.028899 +++++++++++++++++++++++++++++to 0.028899
Heightened Def Con from 0.028899 +++++++++++++++++++++++++++++to 0.028899
Heightened Def Con from 0.028899 +++++++++++++++++++++++++++++to 0.028899
Heightened Def Con from 0.028899 +++++++++++++++++++++++++++++to 0.028899
Heightened Def Con from 0.028899 +++++++++++++++++++++++++++++to 0.028899
Heightened Def Con from 0.028899 +++++++++++++++++++++++++++++to 0.028899
Heightened Def Con from 0.028899 +++++++++++++++++++++++++++++to 0.028899
Heightened Def Con from 0.028899 +++++++++++++++++++++++++++++to 0.028899
Heightened Def Con from 0.028899 +++++++++++++++++++++++++++++to 0.028899
Heightened Def Con from 0.028899 +++++++++++++++++++++++++++++to 0.028899
Heightened Def Con from 0.028899 +++++++++++++++++++++++++++++to 0.028899
Heightened Def Con from 0.028899 +++++++++++++++++++++++++++++to 0.028899
Heightened Def Con from 0.028899 +++++++++++++++++++++++++++++to 0.028899
Heightened Def Con from 0.028899 +++++++++++++++++++++++++++++to 0.028899
Heightened Def Con from 0.028899 +++++++++++++++++++++++++++++to 0.028899
Heightened Def Con from 0.028899 +++++++++++++++++++++++++++++to 0.028899
Heightened Def Con from 0.028899 +++++++++++++++++++++++++++++to 0.028899
Heightened Def Con from 0.028899 +++++++++++++++++++++++++++++to 0.028899
Heightened Def Con from 0.028899 +++++++++++++++++++++++++++++to 0.028899
Heightened Def Con from 0.028899 +++++++++++++++++++++++++++++to 0.028899
Heightened Def Con from 0.028899 +++++++++++++++++++++++++++++to 0.028899
Heightened Def Con from 0.028899 +++++++++++++++++++++++++++++to 0.028899
Heightened Def Con from 0.028899 +++++++++++++++++++++++++++++to 0.028899
Heightened Def Con from 0.028899 +++++++++++++++++++++++++++++to 0.028899
Heightened Def Con from 0.028899 +++++++++++++++++++++++++++++to 0.028899
Heightened Def Con from 0.028899 +++++++++++++++++++++++++++++to 0.028899
Heightened Def Con from 0.028899 +++++++++++++++++++++++++++++to 0.028899
Heightened Def Con from 0.028899 +++++++++++++++++++++++++++++to 0.028899
Heightened Def Con from 0.028899 +++++++++++++++++++++++++++++to 0.028899
Heightened Def Con from 0.028899 +++++++++++++++++++++++++++++to 0.028899
Heightened Def Con from 0.028899 +++++++++++++++++++++++++++++to 0.028899
Heightened Def Con from 0.028899 +++++++++++++++++++++++++++++to 0.028899
Heightened Def Con from 0.028899 +++++++++++++++++++++++++++++to 0.028899
Heightened Def Con from 0.028899 +++++++++++++++++++++++++++++to 0.028899
Heightened Def Con from 0.028899 +++++++++++++++++++++++++++++to 0.028899
Heightened Def Con from 0.028899 +++++++++++++++++++++++++++++to 0.028899
Heightened Def Con from 0.028899 +++++++++++++++++++++++++++++to 0.028899
Heightened Def Con from 0.028899 +++++++++++++++++++++++++++++to 0.028899
Heightened Def Con from 0.028899 +++++++++++++++++++++++++++++to 0.028899
Heightened Def Con from 0.028899 +++++++++++++++++++++++++++++to 0.028899
Heightened Def Con from 0.028899 +++++++++++++++++++++++++++++to 0.028899
Heightened Def Con from 0.028899 +++++++++++++++++++++++++++++to 0.028899
Heightened Def Con from 0.028899 +++++++++++++++++++++++++++++to 0.028899
Heightened Def Con from 0.028899 +++++++++++++++++++++++++++++to 0.028899
Heightened Def Con from 0.028899 +++++++++++++++++++++++++++++to 0.028899
Heightened Def Con from 0.028899 +++++++++++++++++++++++++++++to 0.028899
Heightened Def Con from 0.028899 +++++++++++++++++++++++++++++to 0.028899
Heightened Def Con from 0.028899 +++++++++++++++++++++++++++++to 0.028899
Heightened Def Con from 0.028899 +++++++++++++++++++++++++++++to 0.028899
Heightened Def Con from 0.028899 +++++++++++++++++++++++++++++to 0.028899
Heightened Def Con from 0.028899 +++++++++++++++++++++++++++++to 0.028899
Heightened Def Con from 0.028899 +++++++++++++++++++++++++++++to 0.028899
Heightened Def Con from 0.028899 +++++++++++++++++++++++++++++to 0.028899
Heightened Def Con from 0.028899 +++++++++++++++++++++++++++++to 0.028899
Heightened Def Con from 0.028899 +++++++++++++++++++++++++++++to 0.028899
Heightened Def Con from 0.028899 +++++++++++++++++++++++++++++to 0.028899
Heightened Def Con from 0.028899 +++++++++++++++++++++++++++++to 0.028899
Heightened Def Con from 0.028899 +++++++++++++++++++++++++++++to 0.028899
Heightened Def Con from 0.028899 +++++++++++++++++++++++++++++to 0.028899
Heightened Def Con from 0.028899 +++++++++++++++++++++++++++++to 0.028899
Heightened Def Con from 0.028899 +++++++++++++++++++++++++++++to 0.028899
Heightened Def Con from 0.028899 +++++++++++++++++++++++++++++to 0.028899
Heightened Def Con from 0.028899 +++++++++++++++++++++++++++++to 0.028899
Heightened Def Con from 0.028899 +++++++++++++++++++++++++++++to 0.028899
Heightened Def Con from 0.028899 +++++++++++++++++++++++++++++to 0.028899
Heightened Def Con from 0.028899 +++++++++++++++++++++++++++++to 0.028899
Heightened Def Con from 0.028899 +++++++++++++++++++++++++++++to 0.028899
Heightened Def Con from 0.028899 +++++++++++++++++++++++++++++to 0.028899
Heightened Def Con from 0.028899 +++++++++++++++++++++++++++++to 0.028899
Heightened Def Con from 0.028899 +++++++++++++++++++++++++++++to 0.028899
Heightened Def Con from 0.028899 +++++++++++++++++++++++++++++to 0.028899
Heightened Def Con from 0.028899 +++++++++++++++++++++++++++++to 0.028899
Heightened Def Con from 0.028899 +++++++++++++++++++++++++++++to 0.028899
Heightened Def Con from 0.028899 +++++++++++++++++++++++++++++to 0.028899
Heightened Def Con from 0.028899 +++++++++++++++++++++++++++++to 0.028899
Heightened Def Con from 0.028899 +++++++++++++++++++++++++++++to 0.028899
Heightened Def Con from 0.028899 +++++++++++++++++++++++++++++to 0.028899
Heightened Def Con from 0.028899 +++++++++++++++++++++++++++++to 0.028899
Heightened Def Con from 0.028899 +++++++++++++++++++++++++++++to 0.028899
Heightened Def Con from 0.028899 +++++++++++++++++++++++++++++to 0.028899
Heightened Def Con from 0.028899 +++++++++++++++++++++++++++++to 0.028899
Heightened Def Con from 0.028899 +++++++++++++++++++++++++++++to 0.028899
Heightened Def Con from 0.028899 +++++++++++++++++++++++++++++to 0.028899
Heightened Def Con from 0.028899 +++++++++++++++++++++++++++++to 0.028899
Heightened Def Con from 0.028899 +++++++++++++++++++++++++++++to 0.028899
Heightened Def Con from 0.028899 +++++++++++++++++++++++++++++to 0.028899
Heightened Def Con from 0.028899 +++++++++++++++++++++++++++++to 0.028899
Heightened Def Con from 0.028899 +++++++++++++++++++++++++++++to 0.028899
Heightened Def Con from 0.028899 +++++++++++++++++++++++++++++to 0.0288991
Heightened Def Con from 0.0288991 +++++++++++++++++++++++++++++to 0.0288991
Heightened Def Con from 0.0288991 +++++++++++++++++++++++++++++to 0.0288991
Heightened Def Con from 0.0288991 +++++++++++++++++++++++++++++to 0.0288991
Heightened Def Con from 0.0288991 +++++++++++++++++++++++++++++to 0.0288991
Heightened Def Con from 0.0288991 +++++++++++++++++++++++++++++to 0.0288991
Heightened Def Con from 0.0288991 +++++++++++++++++++++++++++++to 0.0288991
Heightened Def Con from 0.0288991 +++++++++++++++++++++++++++++to 0.0288991
Heightened Def Con from 0.0288991 +++++++++++++++++++++++++++++to 0.0288991
Heightened Def Con from 0.0288991 +++++++++++++++++++++++++++++to 0.0288991
Heightened Def Con from 0.0288991 +++++++++++++++++++++++++++++to 0.0288991
Heightened Def Con from 0.0288991 +++++++++++++++++++++++++++++to 0.0288991
Heightened Def Con from 0.0288991 +++++++++++++++++++++++++++++to 0.0288991
Heightened Def Con from 0.0288991 +++++++++++++++++++++++++++++to 0.0288991
Heightened Def Con from 0.0288991 +++++++++++++++++++++++++++++to 0.0288991
Heightened Def Con from 0.0288991 +++++++++++++++++++++++++++++to 0.0288991
Heightened Def Con from 0.0288991 +++++++++++++++++++++++++++++to 0.0288991
Heightened Def Con from 0.0288991 +++++++++++++++++++++++++++++to 0.0288991
Heightened Def Con from 0.0288991 +++++++++++++++++++++++++++++to 0.0288991
Heightened Def Con from 0.0288991 +++++++++++++++++++++++++++++to 0.0288991
Heightened Def Con from 0.0288991 +++++++++++++++++++++++++++++to 0.0288991
Heightened Def Con from 0.0288991 +++++++++++++++++++++++++++++to 0.0288991
Heightened Def Con from 0.0288991 +++++++++++++++++++++++++++++to 0.0288991
Heightened Def Con from 0.0288991 +++++++++++++++++++++++++++++to 0.0288991
Heightened Def Con from 0.0288991 +++++++++++++++++++++++++++++to 0.0288991
Heightened Def Con from 0.0288991 +++++++++++++++++++++++++++++to 0.0288991
Heightened Def Con from 0.0288991 +++++++++++++++++++++++++++++to 0.0288991
Heightened Def Con from 0.0288991 +++++++++++++++++++++++++++++to 0.0288991
Heightened Def Con from 0.0288991 +++++++++++++++++++++++++++++to 0.0288991
Heightened Def Con from 0.0288991 +++++++++++++++++++++++++++++to 0.0288991
Heightened Def Con from 0.0288991 +++++++++++++++++++++++++++++to 0.0288991
Heightened Def Con from 0.0288991 +++++++++++++++++++++++++++++to 0.0288991
Heightened Def Con from 0.0288991 +++++++++++++++++++++++++++++to 0.0288991
Heightened Def Con from 0.0288991 +++++++++++++++++++++++++++++to 0.0288991
Heightened Def Con from 0.0288991 +++++++++++++++++++++++++++++to 0.0288991
Heightened Def Con from 0.0288991 +++++++++++++++++++++++++++++to 0.0288991
Heightened Def Con from 0.0288991 +++++++++++++++++++++++++++++to 0.0288991
Heightened Def Con from 0.0288991 +++++++++++++++++++++++++++++to 0.0288991
Heightened Def Con from 0.0288991 +++++++++++++++++++++++++++++to 0.0288991
Heightened Def Con from 0.0288991 +++++++++++++++++++++++++++++to 0.0288991
Heightened Def Con from 0.0288991 +++++++++++++++++++++++++++++to 0.0288991
Heightened Def Con from 0.0288991 +++++++++++++++++++++++++++++to 0.0288991
Heightened Def Con from 0.0288991 +++++++++++++++++++++++++++++to 0.0288991
Heightened Def Con from 0.0288991 +++++++++++++++++++++++++++++to 0.0288991
Heightened Def Con from 0.0288991 +++++++++++++++++++++++++++++to 0.0288991
Heightened Def Con from 0.0288991 +++++++++++++++++++++++++++++to 0.0288991
Heightened Def Con from 0.0288991 +++++++++++++++++++++++++++++to 0.0288991
Heightened Def Con from 0.0288991 +++++++++++++++++++++++++++++to 0.0288991
Heightened Def Con from 0.0288991 +++++++++++++++++++++++++++++to 0.0288991
Heightened Def Con from 0.0288991 +++++++++++++++++++++++++++++to 0.0288991
Heightened Def Con from 0.0288991 +++++++++++++++++++++++++++++to 0.0288991
Heightened Def Con from 0.0288991 +++++++++++++++++++++++++++++to 0.0288991
Heightened Def Con from 0.0288991 +++++++++++++++++++++++++++++to 0.0288991
Heightened Def Con from 0.0288991 +++++++++++++++++++++++++++++to 0.0288991
Heightened Def Con from 0.0288991 +++++++++++++++++++++++++++++to 0.0288991
Heightened Def Con from 0.0288991 +++++++++++++++++++++++++++++to 0.0288991
Heightened Def Con from 0.0288991 +++++++++++++++++++++++++++++to 0.0288991
Heightened Def Con from 0.0288991 +++++++++++++++++++++++++++++to 0.0288991
Heightened Def Con from 0.0288991 +++++++++++++++++++++++++++++to 0.0288991
Heightened Def Con from 0.0288991 +++++++++++++++++++++++++++++to 0.0288991
Heightened Def Con from 0.0288991 +++++++++++++++++++++++++++++to 0.0288991
Heightened Def Con from 0.0288991 +++++++++++++++++++++++++++++to 0.0288991
Heightened Def Con from 0.0288991 +++++++++++++++++++++++++++++to 0.0288991
Heightened Def Con from 0.0288991 +++++++++++++++++++++++++++++to 0.0288991
Heightened Def Con from 0.0288991 +++++++++++++++++++++++++++++to 0.0288991
Heightened Def Con from 0.0288991 +++++++++++++++++++++++++++++to 0.0288991
Heightened Def Con from 0.0288991 +++++++++++++++++++++++++++++to 0.0288991
Heightened Def Con from 0.0288991 +++++++++++++++++++++++++++++to 0.0288991
Heightened Def Con from 0.0288991 +++++++++++++++++++++++++++++to 0.0288991
Heightened Def Con from 0.0288991 +++++++++++++++++++++++++++++to 0.0288991
Heightened Def Con from 0.0288991 +++++++++++++++++++++++++++++to 0.0288991
Heightened Def Con from 0.0288991 +++++++++++++++++++++++++++++to 0.0288991
Heightened Def Con from 0.0288991 +++++++++++++++++++++++++++++to 0.0288991
Heightened Def Con from 0.0288991 +++++++++++++++++++++++++++++to 0.0288991
Heightened Def Con from 0.0288991 +++++++++++++++++++++++++++++to 0.0288991
Heightened Def Con from 0.0288991 +++++++++++++++++++++++++++++to 0.0288991
Heightened Def Con from 0.0288991 +++++++++++++++++++++++++++++to 0.0288991
Heightened Def Con from 0.0288991 +++++++++++++++++++++++++++++to 0.0288991
Heightened Def Con from 0.0288991 +++++++++++++++++++++++++++++to 0.0288991
Heightened Def Con from 0.0288991 +++++++++++++++++++++++++++++to 0.0288991
Heightened Def Con from 0.0288991 +++++++++++++++++++++++++++++to 0.0288991
Heightened Def Con from 0.0288991 +++++++++++++++++++++++++++++to 0.0288991
Heightened Def Con from 0.0288991 +++++++++++++++++++++++++++++to 0.0288991
Heightened Def Con from 0.0288991 +++++++++++++++++++++++++++++to 0.0288991
Heightened Def Con from 0.0288991 +++++++++++++++++++++++++++++to 0.0288991
Heightened Def Con from 0.0288991 +++++++++++++++++++++++++++++to 0.0288991
Heightened Def Con from 0.0288991 +++++++++++++++++++++++++++++to 0.0288991
Heightened Def Con from 0.0288991 +++++++++++++++++++++++++++++to 0.0288991
Heightened Def Con from 0.0288991 +++++++++++++++++++++++++++++to 0.0288991
Heightened Def Con from 0.0288991 +++++++++++++++++++++++++++++to 0.0288991
Heightened Def Con from 0.0288991 +++++++++++++++++++++++++++++to 0.0288991
Heightened Def Con from 0.0288991 +++++++++++++++++++++++++++++to 0.0288991
Heightened Def Con from 0.0288991 +++++++++++++++++++++++++++++to 0.0288991
Heightened Def Con from 0.0288991 +++++++++++++++++++++++++++++to 0.0288991
Heightened Def Con from 0.0288991 +++++++++++++++++++++++++++++to 0.0288991
Heightened Def Con from 0.0288991 +++++++++++++++++++++++++++++to 0.0288991
Heightened Def Con from 0.0288991 +++++++++++++++++++++++++++++to 0.0288991
Heightened Def Con from 0.0288991 +++++++++++++++++++++++++++++to 0.0288991
Heightened Def Con from 0.0288991 +++++++++++++++++++++++++++++to 0.0288991
Heightened Def Con from 0.0288991 +++++++++++++++++++++++++++++to 0.0288991
Heightened Def Con from 0.0288991 +++++++++++++++++++++++++++++to 0.0288992
Heightened Def Con from 0.0288992 +++++++++++++++++++++++++++++to 0.0288992
Heightened Def Con from 0.0288992 +++++++++++++++++++++++++++++to 0.0288992
Heightened Def Con from 0.0288992 +++++++++++++++++++++++++++++to 0.0288992
Heightened Def Con from 0.0288992 +++++++++++++++++++++++++++++to 0.0288992
Heightened Def Con from 0.0288992 +++++++++++++++++++++++++++++to 0.0288992
Heightened Def Con from 0.0288992 +++++++++++++++++++++++++++++to 0.0288992
Heightened Def Con from 0.0288992 +++++++++++++++++++++++++++++to 0.0288992
Heightened Def Con from 0.0288992 +++++++++++++++++++++++++++++to 0.0288992
Heightened Def Con from 0.0288992 +++++++++++++++++++++++++++++to 0.0288992
Heightened Def Con from 0.0288992 +++++++++++++++++++++++++++++to 0.0288992
Heightened Def Con from 0.0288992 +++++++++++++++++++++++++++++to 0.0288992
Heightened Def Con from 0.0288992 +++++++++++++++++++++++++++++to 0.0288992
Heightened Def Con from 0.0288992 +++++++++++++++++++++++++++++to 0.0288992
Heightened Def Con from 0.0288992 +++++++++++++++++++++++++++++to 0.0288992
Heightened Def Con from 0.0288992 +++++++++++++++++++++++++++++to 0.0288992
Heightened Def Con from 0.0288992 +++++++++++++++++++++++++++++to 0.0288992
Heightened Def Con from 0.0288992 +++++++++++++++++++++++++++++to 0.0288992
Heightened Def Con from 0.0288992 +++++++++++++++++++++++++++++to 0.0288992
Heightened Def Con from 0.0288992 +++++++++++++++++++++++++++++to 0.0288992
Heightened Def Con from 0.0288992 +++++++++++++++++++++++++++++to 0.0288992
Heightened Def Con from 0.0288992 +++++++++++++++++++++++++++++to 0.0288992
Heightened Def Con from 0.0288992 +++++++++++++++++++++++++++++to 0.0288992
Heightened Def Con from 0.0288992 +++++++++++++++++++++++++++++to 0.0288992
Heightened Def Con from 0.0288992 +++++++++++++++++++++++++++++to 0.0288992
Heightened Def Con from 0.0288992 +++++++++++++++++++++++++++++to 0.0288992
Heightened Def Con from 0.0288992 +++++++++++++++++++++++++++++to 0.0288992
Heightened Def Con from 0.0288992 +++++++++++++++++++++++++++++to 0.0288992
Heightened Def Con from 0.0288992 +++++++++++++++++++++++++++++to 0.0288992
Heightened Def Con from 0.0288992 +++++++++++++++++++++++++++++to 0.0288992
Heightened Def Con from 0.0288992 +++++++++++++++++++++++++++++to 0.0288992
Heightened Def Con from 0.0288992 +++++++++++++++++++++++++++++to 0.0288992
Heightened Def Con from 0.0288992 +++++++++++++++++++++++++++++to 0.0288992
Heightened Def Con from 0.0288992 +++++++++++++++++++++++++++++to 0.0288992
Heightened Def Con from 0.0288992 +++++++++++++++++++++++++++++to 0.0288992
Heightened Def Con from 0.0288992 +++++++++++++++++++++++++++++to 0.0288992
Heightened Def Con from 0.0288992 +++++++++++++++++++++++++++++to 0.0288992
Heightened Def Con from 0.0288992 +++++++++++++++++++++++++++++to 0.0288992
Heightened Def Con from 0.0288992 +++++++++++++++++++++++++++++to 0.0288992
Heightened Def Con from 0.0288992 +++++++++++++++++++++++++++++to 0.0288992
Heightened Def Con from 0.0288992 +++++++++++++++++++++++++++++to 0.0288992
Heightened Def Con from 0.0288992 +++++++++++++++++++++++++++++to 0.0288992
Heightened Def Con from 0.0288992 +++++++++++++++++++++++++++++to 0.0288992
Heightened Def Con from 0.0288992 +++++++++++++++++++++++++++++to 0.0288992
Heightened Def Con from 0.0288992 +++++++++++++++++++++++++++++to 0.0288992
Heightened Def Con from 0.0288992 +++++++++++++++++++++++++++++to 0.0288992
Heightened Def Con from 0.0288992 +++++++++++++++++++++++++++++to 0.0288992
Heightened Def Con from 0.0288992 +++++++++++++++++++++++++++++to 0.0288992
Heightened Def Con from 0.0288992 +++++++++++++++++++++++++++++to 0.0288992
Heightened Def Con from 0.0288992 +++++++++++++++++++++++++++++to 0.0288992
Heightened Def Con from 0.0288992 +++++++++++++++++++++++++++++to 0.0288992
Heightened Def Con from 0.0288992 +++++++++++++++++++++++++++++to 0.0288992
Heightened Def Con from 0.0288992 +++++++++++++++++++++++++++++to 0.0288992
Heightened Def Con from 0.0288992 +++++++++++++++++++++++++++++to 0.0288992
Heightened Def Con from 0.0288992 +++++++++++++++++++++++++++++to 0.0288992
Heightened Def Con from 0.0288992 +++++++++++++++++++++++++++++to 0.0288992
Heightened Def Con from 0.0288992 +++++++++++++++++++++++++++++to 0.0288992
Heightened Def Con from 0.0288992 +++++++++++++++++++++++++++++to 0.0288992
Heightened Def Con from 0.0288992 +++++++++++++++++++++++++++++to 0.0288992
Heightened Def Con from 0.0288992 +++++++++++++++++++++++++++++to 0.0288992
Heightened Def Con from 0.0288992 +++++++++++++++++++++++++++++to 0.0288992
Heightened Def Con from 0.0288992 +++++++++++++++++++++++++++++to 0.0288992
Heightened Def Con from 0.0288992 +++++++++++++++++++++++++++++to 0.0288992
Heightened Def Con from 0.0288992 +++++++++++++++++++++++++++++to 0.0288992
Heightened Def Con from 0.0288992 +++++++++++++++++++++++++++++to 0.0288992
Heightened Def Con from 0.0288992 +++++++++++++++++++++++++++++to 0.0288992
Heightened Def Con from 0.0288992 +++++++++++++++++++++++++++++to 0.0288992
Heightened Def Con from 0.0288992 +++++++++++++++++++++++++++++to 0.0288992
Heightened Def Con from 0.0288992 +++++++++++++++++++++++++++++to 0.0288992
Heightened Def Con from 0.0288992 +++++++++++++++++++++++++++++to 0.0288992
Heightened Def Con from 0.0288992 +++++++++++++++++++++++++++++to 0.0288992
Heightened Def Con from 0.0288992 +++++++++++++++++++++++++++++to 0.0288992
Heightened Def Con from 0.0288992 +++++++++++++++++++++++++++++to 0.0288992
Heightened Def Con from 0.0288992 +++++++++++++++++++++++++++++to 0.0288992
Heightened Def Con from 0.0288992 +++++++++++++++++++++++++++++to 0.0288992
Heightened Def Con from 0.0288992 +++++++++++++++++++++++++++++to 0.0288992
Heightened Def Con from 0.0288992 +++++++++++++++++++++++++++++to 0.0288992
Heightened Def Con from 0.0288992 +++++++++++++++++++++++++++++to 0.0288992
Heightened Def Con from 0.0288992 +++++++++++++++++++++++++++++to 0.0288992
Heightened Def Con from 0.0288992 +++++++++++++++++++++++++++++to 0.0288992
Heightened Def Con from 0.0288992 +++++++++++++++++++++++++++++to 0.0288992
Heightened Def Con from 0.0288992 +++++++++++++++++++++++++++++to 0.0288992
Heightened Def Con from 0.0288992 +++++++++++++++++++++++++++++to 0.0288992
Heightened Def Con from 0.0288992 +++++++++++++++++++++++++++++to 0.0288992
Heightened Def Con from 0.0288992 +++++++++++++++++++++++++++++to 0.0288992
Heightened Def Con from 0.0288992 +++++++++++++++++++++++++++++to 0.0288992
Heightened Def Con from 0.0288992 +++++++++++++++++++++++++++++to 0.0288992
Heightened Def Con from 0.0288992 +++++++++++++++++++++++++++++to 0.0288992
Heightened Def Con from 0.0288992 +++++++++++++++++++++++++++++to 0.0288992
Heightened Def Con from 0.0288992 +++++++++++++++++++++++++++++to 0.0288992
Heightened Def Con from 0.0288992 +++++++++++++++++++++++++++++to 0.0288992
Heightened Def Con from 0.0288992 +++++++++++++++++++++++++++++to 0.0288992
Heightened Def Con from 0.0288992 +++++++++++++++++++++++++++++to 0.0288992
Heightened Def Con from 0.0288992 +++++++++++++++++++++++++++++to 0.0288992
Heightened Def Con from 0.0288992 +++++++++++++++++++++++++++++to 0.0288992
Heightened Def Con from 0.0288992 +++++++++++++++++++++++++++++to 0.0288992
Heightened Def Con from 0.0288992 +++++++++++++++++++++++++++++to 0.0288992
Heightened Def Con from 0.0288992 +++++++++++++++++++++++++++++to 0.0288992
Heightened Def Con from 0.0288992 +++++++++++++++++++++++++++++to 0.0288992
Heightened Def Con from 0.0288992 +++++++++++++++++++++++++++++to 0.0288992
Heightened Def Con from 0.0288992 +++++++++++++++++++++++++++++to 0.0288993
Heightened Def Con from 0.0288993 +++++++++++++++++++++++++++++to 0.0288993
Heightened Def Con from 0.0288993 +++++++++++++++++++++++++++++to 0.0288993
Heightened Def Con from 0.0288993 +++++++++++++++++++++++++++++to 0.0288993
Heightened Def Con from 0.0288993 +++++++++++++++++++++++++++++to 0.0288993
Heightened Def Con from 0.0288993 +++++++++++++++++++++++++++++to 0.0288993
Heightened Def Con from 0.0288993 +++++++++++++++++++++++++++++to 0.0288993
Heightened Def Con from 0.0288993 +++++++++++++++++++++++++++++to 0.0288993
Heightened Def Con from 0.0288993 +++++++++++++++++++++++++++++to 0.0288993
Heightened Def Con from 0.0288993 +++++++++++++++++++++++++++++to 0.0288993
Heightened Def Con from 0.0288993 +++++++++++++++++++++++++++++to 0.0288993
Heightened Def Con from 0.0288993 +++++++++++++++++++++++++++++to 0.0288993
Heightened Def Con from 0.0288993 +++++++++++++++++++++++++++++to 0.0288993
Heightened Def Con from 0.0288993 +++++++++++++++++++++++++++++to 0.0288993
Heightened Def Con from 0.0288993 +++++++++++++++++++++++++++++to 0.0288993
Heightened Def Con from 0.0288993 +++++++++++++++++++++++++++++to 0.0288993
Heightened Def Con from 0.0288993 +++++++++++++++++++++++++++++to 0.0288993
Heightened Def Con from 0.0288993 +++++++++++++++++++++++++++++to 0.0288993
Heightened Def Con from 0.0288993 +++++++++++++++++++++++++++++to 0.0288993
Heightened Def Con from 0.0288993 +++++++++++++++++++++++++++++to 0.0288993
Heightened Def Con from 0.0288993 +++++++++++++++++++++++++++++to 0.0288993
Heightened Def Con from 0.0288993 +++++++++++++++++++++++++++++to 0.0288993
Heightened Def Con from 0.0288993 +++++++++++++++++++++++++++++to 0.0288993
Heightened Def Con from 0.0288993 +++++++++++++++++++++++++++++to 0.0288993
Heightened Def Con from 0.0288993 +++++++++++++++++++++++++++++to 0.0288993
Heightened Def Con from 0.0288993 +++++++++++++++++++++++++++++to 0.0288993
Heightened Def Con from 0.0288993 +++++++++++++++++++++++++++++to 0.0288993
Heightened Def Con from 0.0288993 +++++++++++++++++++++++++++++to 0.0288993
Heightened Def Con from 0.0288993 +++++++++++++++++++++++++++++to 0.0288993
Heightened Def Con from 0.0288993 +++++++++++++++++++++++++++++to 0.0288993
Heightened Def Con from 0.0288993 +++++++++++++++++++++++++++++to 0.0288993
Heightened Def Con from 0.0288993 +++++++++++++++++++++++++++++to 0.0288993
Heightened Def Con from 0.0288993 +++++++++++++++++++++++++++++to 0.0288993
Heightened Def Con from 0.0288993 +++++++++++++++++++++++++++++to 0.0288993
Heightened Def Con from 0.0288993 +++++++++++++++++++++++++++++to 0.0288993
Heightened Def Con from 0.0288993 +++++++++++++++++++++++++++++to 0.0288993
Heightened Def Con from 0.0288993 +++++++++++++++++++++++++++++to 0.0288993
Heightened Def Con from 0.0288993 +++++++++++++++++++++++++++++to 0.0288993
Heightened Def Con from 0.0288993 +++++++++++++++++++++++++++++to 0.0288993
Heightened Def Con from 0.0288993 +++++++++++++++++++++++++++++to 0.0288993
Heightened Def Con from 0.0288993 +++++++++++++++++++++++++++++to 0.0288993
Heightened Def Con from 0.0288993 +++++++++++++++++++++++++++++to 0.0288993
Heightened Def Con from 0.0288993 +++++++++++++++++++++++++++++to 0.0288993
Heightened Def Con from 0.0288993 +++++++++++++++++++++++++++++to 0.0288993
Heightened Def Con from 0.0288993 +++++++++++++++++++++++++++++to 0.0288993
Heightened Def Con from 0.0288993 +++++++++++++++++++++++++++++to 0.0288993
Heightened Def Con from 0.0288993 +++++++++++++++++++++++++++++to 0.0288993
Heightened Def Con from 0.0288993 +++++++++++++++++++++++++++++to 0.0288993
Heightened Def Con from 0.0288993 +++++++++++++++++++++++++++++to 0.0288993
Heightened Def Con from 0.0288993 +++++++++++++++++++++++++++++to 0.0288993
Heightened Def Con from 0.0288993 +++++++++++++++++++++++++++++to 0.0288993
Heightened Def Con from 0.0288993 +++++++++++++++++++++++++++++to 0.0288993
Heightened Def Con from 0.0288993 +++++++++++++++++++++++++++++to 0.0288993
Heightened Def Con from 0.0288993 +++++++++++++++++++++++++++++to 0.0288993
Heightened Def Con from 0.0288993 +++++++++++++++++++++++++++++to 0.0288993
Heightened Def Con from 0.0288993 +++++++++++++++++++++++++++++to 0.0288993
Heightened Def Con from 0.0288993 +++++++++++++++++++++++++++++to 0.0288993
Heightened Def Con from 0.0288993 +++++++++++++++++++++++++++++to 0.0288993
Heightened Def Con from 0.0288993 +++++++++++++++++++++++++++++to 0.0288993
Heightened Def Con from 0.0288993 +++++++++++++++++++++++++++++to 0.0288993
Heightened Def Con from 0.0288993 +++++++++++++++++++++++++++++to 0.0288993
Heightened Def Con from 0.0288993 +++++++++++++++++++++++++++++to 0.0288993
Heightened Def Con from 0.0288993 +++++++++++++++++++++++++++++to 0.0288993
Heightened Def Con from 0.0288993 +++++++++++++++++++++++++++++to 0.0288993
Heightened Def Con from 0.0288993 +++++++++++++++++++++++++++++to 0.0288993
Heightened Def Con from 0.0288993 +++++++++++++++++++++++++++++to 0.0288993
Heightened Def Con from 0.0288993 +++++++++++++++++++++++++++++to 0.0288993
Heightened Def Con from 0.0288993 +++++++++++++++++++++++++++++to 0.0288993
Heightened Def Con from 0.0288993 +++++++++++++++++++++++++++++to 0.0288993
Heightened Def Con from 0.0288993 +++++++++++++++++++++++++++++to 0.0288993
Heightened Def Con from 0.0288993 +++++++++++++++++++++++++++++to 0.0288993
Heightened Def Con from 0.0288993 +++++++++++++++++++++++++++++to 0.0288993
Heightened Def Con from 0.0288993 +++++++++++++++++++++++++++++to 0.0288993
Heightened Def Con from 0.0288993 +++++++++++++++++++++++++++++to 0.0288993
Heightened Def Con from 0.0288993 +++++++++++++++++++++++++++++to 0.0288993
Heightened Def Con from 0.0288993 +++++++++++++++++++++++++++++to 0.0288993
Heightened Def Con from 0.0288993 +++++++++++++++++++++++++++++to 0.0288993
Heightened Def Con from 0.0288993 +++++++++++++++++++++++++++++to 0.0288993
Heightened Def Con from 0.0288993 +++++++++++++++++++++++++++++to 0.0288993
Heightened Def Con from 0.0288993 +++++++++++++++++++++++++++++to 0.0288993
Heightened Def Con from 0.0288993 +++++++++++++++++++++++++++++to 0.0288993
Heightened Def Con from 0.0288993 +++++++++++++++++++++++++++++to 0.0288993
Heightened Def Con from 0.0288993 +++++++++++++++++++++++++++++to 0.0288993
Heightened Def Con from 0.0288993 +++++++++++++++++++++++++++++to 0.0288993
Heightened Def Con from 0.0288993 +++++++++++++++++++++++++++++to 0.0288993
Heightened Def Con from 0.0288993 +++++++++++++++++++++++++++++to 0.0288993
Heightened Def Con from 0.0288993 +++++++++++++++++++++++++++++to 0.0288993
Heightened Def Con from 0.0288993 +++++++++++++++++++++++++++++to 0.0288993
Heightened Def Con from 0.0288993 +++++++++++++++++++++++++++++to 0.0288993
Heightened Def Con from 0.0288993 +++++++++++++++++++++++++++++to 0.0288993
Heightened Def Con from 0.0288993 +++++++++++++++++++++++++++++to 0.0288993
Heightened Def Con from 0.0288993 +++++++++++++++++++++++++++++to 0.0288993
Heightened Def Con from 0.0288993 +++++++++++++++++++++++++++++to 0.0288993
Heightened Def Con from 0.0288993 +++++++++++++++++++++++++++++to 0.0288993
Heightened Def Con from 0.0288993 +++++++++++++++++++++++++++++to 0.0288993
Heightened Def Con from 0.0288993 +++++++++++++++++++++++++++++to 0.0288993
Heightened Def Con from 0.0288993 +++++++++++++++++++++++++++++to 0.0288993
Heightened Def Con from 0.0288993 +++++++++++++++++++++++++++++to 0.0288993
Heightened Def Con from 0.0288993 +++++++++++++++++++++++++++++to 0.0288993
Heightened Def Con from 0.0288993 +++++++++++++++++++++++++++++to 0.0288993
Heightened Def Con from 0.0288993 +++++++++++++++++++++++++++++to 0.0288994
Heightened Def Con from 0.0288994 +++++++++++++++++++++++++++++to 0.0288994
Heightened Def Con from 0.0288994 +++++++++++++++++++++++++++++to 0.0288994
Heightened Def Con from 0.0288994 +++++++++++++++++++++++++++++to 0.0288994
Heightened Def Con from 0.0288994 +++++++++++++++++++++++++++++to 0.0288994
Heightened Def Con from 0.0288994 +++++++++++++++++++++++++++++to 0.0288994
Heightened Def Con from 0.0288994 +++++++++++++++++++++++++++++to 0.0288994
Heightened Def Con from 0.0288994 +++++++++++++++++++++++++++++to 0.0288994
Heightened Def Con from 0.0288994 +++++++++++++++++++++++++++++to 0.0288994
Heightened Def Con from 0.0288994 +++++++++++++++++++++++++++++to 0.0288994
Heightened Def Con from 0.0288994 +++++++++++++++++++++++++++++to 0.0288994
Heightened Def Con from 0.0288994 +++++++++++++++++++++++++++++to 0.0288994
Heightened Def Con from 0.0288994 +++++++++++++++++++++++++++++to 0.0288994
Heightened Def Con from 0.0288994 +++++++++++++++++++++++++++++to 0.0288994
Heightened Def Con from 0.0288994 +++++++++++++++++++++++++++++to 0.0288994
Heightened Def Con from 0.0288994 +++++++++++++++++++++++++++++to 0.0288994
Heightened Def Con from 0.0288994 +++++++++++++++++++++++++++++to 0.0288994
Heightened Def Con from 0.0288994 +++++++++++++++++++++++++++++to 0.0288994
Heightened Def Con from 0.0288994 +++++++++++++++++++++++++++++to 0.0288994
Heightened Def Con from 0.0288994 +++++++++++++++++++++++++++++to 0.0288994
Heightened Def Con from 0.0288994 +++++++++++++++++++++++++++++to 0.0288994
Heightened Def Con from 0.0288994 +++++++++++++++++++++++++++++to 0.0288994
Heightened Def Con from 0.0288994 +++++++++++++++++++++++++++++to 0.0288994
Heightened Def Con from 0.0288994 +++++++++++++++++++++++++++++to 0.0288994
Heightened Def Con from 0.0288994 +++++++++++++++++++++++++++++to 0.0288994
Heightened Def Con from 0.0288994 +++++++++++++++++++++++++++++to 0.0288994
Heightened Def Con from 0.0288994 +++++++++++++++++++++++++++++to 0.0288994
Heightened Def Con from 0.0288994 +++++++++++++++++++++++++++++to 0.0288994
Heightened Def Con from 0.0288994 +++++++++++++++++++++++++++++to 0.0288994
Heightened Def Con from 0.0288994 +++++++++++++++++++++++++++++to 0.0288994
Heightened Def Con from 0.0288994 +++++++++++++++++++++++++++++to 0.0288994
Heightened Def Con from 0.0288994 +++++++++++++++++++++++++++++to 0.0288994
Heightened Def Con from 0.0288994 +++++++++++++++++++++++++++++to 0.0288994
Heightened Def Con from 0.0288994 +++++++++++++++++++++++++++++to 0.0288994
Heightened Def Con from 0.0288994 +++++++++++++++++++++++++++++to 0.0288994
Heightened Def Con from 0.0288994 +++++++++++++++++++++++++++++to 0.0288994
Heightened Def Con from 0.0288994 +++++++++++++++++++++++++++++to 0.0288994
Heightened Def Con from 0.0288994 +++++++++++++++++++++++++++++to 0.0288994
Heightened Def Con from 0.0288994 +++++++++++++++++++++++++++++to 0.0288994
Heightened Def Con from 0.0288994 +++++++++++++++++++++++++++++to 0.0288994
Heightened Def Con from 0.0288994 +++++++++++++++++++++++++++++to 0.0288994
Heightened Def Con from 0.0288994 +++++++++++++++++++++++++++++to 0.0288994
Heightened Def Con from 0.0288994 +++++++++++++++++++++++++++++to 0.0288994
Heightened Def Con from 0.0288994 +++++++++++++++++++++++++++++to 0.0288994
Heightened Def Con from 0.0288994 +++++++++++++++++++++++++++++to 0.0288994
Heightened Def Con from 0.0288994 +++++++++++++++++++++++++++++to 0.0288994
Heightened Def Con from 0.0288994 +++++++++++++++++++++++++++++to 0.0288994
Heightened Def Con from 0.0288994 +++++++++++++++++++++++++++++to 0.0288994
Heightened Def Con from 0.0288994 +++++++++++++++++++++++++++++to 0.0288994
Heightened Def Con from 0.0288994 +++++++++++++++++++++++++++++to 0.0288994
Heightened Def Con from 0.0288994 +++++++++++++++++++++++++++++to 0.0288994
Heightened Def Con from 0.0288994 +++++++++++++++++++++++++++++to 0.0288994
Heightened Def Con from 0.0288994 +++++++++++++++++++++++++++++to 0.0288994
Heightened Def Con from 0.0288994 +++++++++++++++++++++++++++++to 0.0288994
Heightened Def Con from 0.0288994 +++++++++++++++++++++++++++++to 0.0288994
Heightened Def Con from 0.0288994 +++++++++++++++++++++++++++++to 0.0288994
Heightened Def Con from 0.0288994 +++++++++++++++++++++++++++++to 0.0288994
Heightened Def Con from 0.0288994 +++++++++++++++++++++++++++++to 0.0288994
Heightened Def Con from 0.0288994 +++++++++++++++++++++++++++++to 0.0288994
Heightened Def Con from 0.0288994 +++++++++++++++++++++++++++++to 0.0288994
Heightened Def Con from 0.0288994 +++++++++++++++++++++++++++++to 0.0288994
Heightened Def Con from 0.0288994 +++++++++++++++++++++++++++++to 0.0288994
Heightened Def Con from 0.0288994 +++++++++++++++++++++++++++++to 0.0288994
Heightened Def Con from 0.0288994 +++++++++++++++++++++++++++++to 0.0288994
Heightened Def Con from 0.0288994 +++++++++++++++++++++++++++++to 0.0288994
Heightened Def Con from 0.0288994 +++++++++++++++++++++++++++++to 0.0288994
Heightened Def Con from 0.0288994 +++++++++++++++++++++++++++++to 0.0288994
Heightened Def Con from 0.0288994 +++++++++++++++++++++++++++++to 0.0288994
Heightened Def Con from 0.0288994 +++++++++++++++++++++++++++++to 0.0288994
Heightened Def Con from 0.0288994 +++++++++++++++++++++++++++++to 0.0288994
Heightened Def Con from 0.0288994 +++++++++++++++++++++++++++++to 0.0288994
Heightened Def Con from 0.0288994 +++++++++++++++++++++++++++++to 0.0288994
Heightened Def Con from 0.0288994 +++++++++++++++++++++++++++++to 0.0288994
Heightened Def Con from 0.0288994 +++++++++++++++++++++++++++++to 0.0288994
Heightened Def Con from 0.0288994 +++++++++++++++++++++++++++++to 0.0288994
Heightened Def Con from 0.0288994 +++++++++++++++++++++++++++++to 0.0288994
Heightened Def Con from 0.0288994 +++++++++++++++++++++++++++++to 0.0288994
Heightened Def Con from 0.0288994 +++++++++++++++++++++++++++++to 0.0288994
Heightened Def Con from 0.0288994 +++++++++++++++++++++++++++++to 0.0288994
Heightened Def Con from 0.0288994 +++++++++++++++++++++++++++++to 0.0288994
Heightened Def Con from 0.0288994 +++++++++++++++++++++++++++++to 0.0288994
Heightened Def Con from 0.0288994 +++++++++++++++++++++++++++++to 0.0288994
Heightened Def Con from 0.0288994 +++++++++++++++++++++++++++++to 0.0288994
Heightened Def Con from 0.0288994 +++++++++++++++++++++++++++++to 0.0288994
Heightened Def Con from 0.0288994 +++++++++++++++++++++++++++++to 0.0288994
Heightened Def Con from 0.0288994 +++++++++++++++++++++++++++++to 0.0288994
Heightened Def Con from 0.0288994 +++++++++++++++++++++++++++++to 0.0288994
Heightened Def Con from 0.0288994 +++++++++++++++++++++++++++++to 0.0288994
Heightened Def Con from 0.0288994 +++++++++++++++++++++++++++++to 0.0288994
Heightened Def Con from 0.0288994 +++++++++++++++++++++++++++++to 0.0288994
Heightened Def Con from 0.0288994 +++++++++++++++++++++++++++++to 0.0288994
Heightened Def Con from 0.0288994 +++++++++++++++++++++++++++++to 0.0288994
Heightened Def Con from 0.0288994 +++++++++++++++++++++++++++++to 0.0288994
Heightened Def Con from 0.0288994 +++++++++++++++++++++++++++++to 0.0288994
Heightened Def Con from 0.0288994 +++++++++++++++++++++++++++++to 0.0288994
Heightened Def Con from 0.0288994 +++++++++++++++++++++++++++++to 0.0288994
Heightened Def Con from 0.0288994 +++++++++++++++++++++++++++++to 0.0288994
Heightened Def Con from 0.0288994 +++++++++++++++++++++++++++++to 0.0288994
Heightened Def Con from 0.0288994 +++++++++++++++++++++++++++++to 0.0288994
Heightened Def Con from 0.0288994 +++++++++++++++++++++++++++++to 0.0288994
Heightened Def Con from 0.0288994 +++++++++++++++++++++++++++++to 0.0288995
Heightened Def Con from 0.0288995 +++++++++++++++++++++++++++++to 0.0288995
Heightened Def Con from 0.0288995 +++++++++++++++++++++++++++++to 0.0288995
Heightened Def Con from 0.0288995 +++++++++++++++++++++++++++++to 0.0288995
Heightened Def Con from 0.0288995 +++++++++++++++++++++++++++++to 0.0288995
Heightened Def Con from 0.0288995 +++++++++++++++++++++++++++++to 0.0288995
Heightened Def Con from 0.0288995 +++++++++++++++++++++++++++++to 0.0288995
Heightened Def Con from 0.0288995 +++++++++++++++++++++++++++++to 0.0288995
Heightened Def Con from 0.0288995 +++++++++++++++++++++++++++++to 0.0288995
Heightened Def Con from 0.0288995 +++++++++++++++++++++++++++++to 0.0288995
Heightened Def Con from 0.0288995 +++++++++++++++++++++++++++++to 0.0288995
Heightened Def Con from 0.0288995 +++++++++++++++++++++++++++++to 0.0288995
Heightened Def Con from 0.0288995 +++++++++++++++++++++++++++++to 0.0288995
Heightened Def Con from 0.0288995 +++++++++++++++++++++++++++++to 0.0288995
Heightened Def Con from 0.0288995 +++++++++++++++++++++++++++++to 0.0288995
Heightened Def Con from 0.0288995 +++++++++++++++++++++++++++++to 0.0288995
Heightened Def Con from 0.0288995 +++++++++++++++++++++++++++++to 0.0288995
Heightened Def Con from 0.0288995 +++++++++++++++++++++++++++++to 0.0288995
Heightened Def Con from 0.0288995 +++++++++++++++++++++++++++++to 0.0288995
Heightened Def Con from 0.0288995 +++++++++++++++++++++++++++++to 0.0288995
Heightened Def Con from 0.0288995 +++++++++++++++++++++++++++++to 0.0288995
Heightened Def Con from 0.0288995 +++++++++++++++++++++++++++++to 0.0288995
Heightened Def Con from 0.0288995 +++++++++++++++++++++++++++++to 0.0288995
Heightened Def Con from 0.0288995 +++++++++++++++++++++++++++++to 0.0288995
Heightened Def Con from 0.0288995 +++++++++++++++++++++++++++++to 0.0288995
[...]
Heightened Def Con from 0.0289203 ++++++++++++++++++++++++++++to 0.0289203
Heightened Def Con from 0.0289203 ++++++++++++++++++++++++++++to 0.0289203
Heightened Def Con from 0.0289203 ++++++++++++++++++++++++++++to 0.0289203
Heightened Def Con from 0.0289203 ++++++++++++++++++++++++++++to 0.0289203
Heightened Def Con from 0.0289203 ++++++++++++++++++++++++++++to 0.0289203
Heightened Def Con from 0.0289203 ++++++++++++++++++++++++++++to 0.0289203
Heightened Def Con from 0.0289203 ++++++++++++++++++++++++++++to 0.0289203
Heightened Def Con from 0.0289203 ++++++++++++++++++++++++++++to 0.0289203
Heightened Def Con from 0.0289203 ++++++++++++++++++++++++++++to 0.0289203
Heightened Def Con from 0.0289203 ++++++++++++++++++++++++++++to 0.0289203
Heightened Def Con from 0.0289203 ++++++++++++++++++++++++++++to 0.0289203
Heightened Def Con from 0.0289203 ++++++++++++++++++++++++++++to 0.0289203
Heightened Def Con from 0.0289203 ++++++++++++++++++++++++++++to 0.0289203
Heightened Def Con from 0.0289203 ++++++++++++++++++++++++++++to 0.0289203
Heightened Def Con from 0.0289203 ++++++++++++++++++++++++++++to 0.0289203
Heightened Def Con from 0.0289203 ++++++++++++++++++++++++++++to 0.0289203
Heightened Def Con from 0.0289203 ++++++++++++++++++++++++++++to 0.0289203
Heightened Def Con from 0.0289203 ++++++++++++++++++++++++++++to 0.0289203
Heightened Def Con from 0.0289203 ++++++++++++++++++++++++++++to 0.0289203
Heightened Def Con from 0.0289203 ++++++++++++++++++++++++++++to 0.0289203
Heightened Def Con from 0.0289203 ++++++++++++++++++++++++++++to 0.0289203
Heightened Def Con from 0.0289203 ++++++++++++++++++++++++++++to 0.0289203
Heightened Def Con from 0.0289203 ++++++++++++++++++++++++++++to 0.0289203
Heightened Def Con from 0.0289203 ++++++++++++++++++++++++++++to 0.0289203
Heightened Def Con from 0.0289203 ++++++++++++++++++++++++++++to 0.0289203
Heightened Def Con from 0.0289203 ++++++++++++++++++++++++++++to 0.0289203
Heightened Def Con from 0.0289203 ++++++++++++++++++++++++++++to 0.0289203
Heightened Def Con from 0.0289203 ++++++++++++++++++++++++++++to 0.0289203
Heightened Def Con from 0.0289203 ++++++++++++++++++++++++++++to 0.0289203
Heightened Def Con from 0.0289203 ++++++++++++++++++++++++++++to 0.0289203
Heightened Def Con from 0.0289203 ++++++++++++++++++++++++++++to 0.0289203
Heightened Def Con from 0.0289203 ++++++++++++++++++++++++++++to 0.0289203
Heightened Def Con from 0.0289203 ++++++++++++++++++++++++++++to 0.0289203
Heightened Def Con from 0.0289203 ++++++++++++++++++++++++++++to 0.0289203
Heightened Def Con from 0.0289203 ++++++++++++++++++++++++++++to 0.0289203
Heightened Def Con from 0.0289203 ++++++++++++++++++++++++++++to 0.0289203
Heightened Def Con from 0.0289203 ++++++++++++++++++++++++++++to 0.0289203
Heightened Def Con from 0.0289203 ++++++++++++++++++++++++++++to 0.0289203
Heightened Def Con from 0.0289203 ++++++++++++++++++++++++++++to 0.0289203
Heightened Def Con from 0.0289203 ++++++++++++++++++++++++++++to 0.0289203
Heightened Def Con from 0.0289203 ++++++++++++++++++++++++++++to 0.0289203
Heightened Def Con from 0.0289203 ++++++++++++++++++++++++++++to 0.0289203
Heightened Def Con from 0.0289203 ++++++++++++++++++++++++++++to 0.0289203
Heightened Def Con from 0.0289203 ++++++++++++++++++++++++++++to 0.0289203
Heightened Def Con from 0.0289203 ++++++++++++++++++++++++++++to 0.0289203
Heightened Def Con from 0.0289203 ++++++++++++++++++++++++++++to 0.0289203
Heightened Def Con from 0.0289203 ++++++++++++++++++++++++++++to 0.0289203
Heightened Def Con from 0.0289203 ++++++++++++++++++++++++++++to 0.0289203
Heightened Def Con from 0.0289203 ++++++++++++++++++++++++++++to 0.0289203
Heightened Def Con from 0.0289203 ++++++++++++++++++++++++++++to 0.0289203
Heightened Def Con from 0.0289203 ++++++++++++++++++++++++++++to 0.0289203
Heightened Def Con from 0.0289203 ++++++++++++++++++++++++++++to 0.0289203
Heightened Def Con from 0.0289203 ++++++++++++++++++++++++++++to 0.0289203
Heightened Def Con from 0.0289203 ++++++++++++++++++++++++++++to 0.0289203
Heightened Def Con from 0.0289203 ++++++++++++++++++++++++++++to 0.0289203
Heightened Def Con from 0.0289203 ++++++++++++++++++++++++++++to 0.0289203
Heightened Def Con from 0.0289203 ++++++++++++++++++++++++++++to 0.0289203
Heightened Def Con from 0.0289203 ++++++++++++++++++++++++++++to 0.0289203
Heightened Def Con from 0.0289203 ++++++++++++++++++++++++++++to 0.0289203
Heightened Def Con from 0.0289203 ++++++++++++++++++++++++++++to 0.0289203
Heightened Def Con from 0.0289203 ++++++++++++++++++++++++++++to 0.0289203
Heightened Def Con from 0.0289203 ++++++++++++++++++++++++++++to 0.0289203
Heightened Def Con from 0.0289203 ++++++++++++++++++++++++++++to 0.0289203
Heightened Def Con from 0.0289203 ++++++++++++++++++++++++++++to 0.0289203
Heightened Def Con from 0.0289203 ++++++++++++++++++++++++++++to 0.0289203
Heightened Def Con from 0.0289203 ++++++++++++++++++++++++++++to 0.0289203
Heightened Def Con from 0.0289203 ++++++++++++++++++++++++++++to 0.0289203
Heightened Def Con from 0.0289203 ++++++++++++++++++++++++++++to 0.0289203
Heightened Def Con from 0.0289203 ++++++++++++++++++++++++++++to 0.0289204
Heightened Def Con from 0.0289204 ++++++++++++++++++++++++++++to 0.0289204
Heightened Def Con from 0.0289204 ++++++++++++++++++++++++++++to 0.0289204
Heightened Def Con from 0.0289204 ++++++++++++++++++++++++++++to 0.0289204
Heightened Def Con from 0.0289204 ++++++++++++++++++++++++++++to 0.0289204
Heightened Def Con from 0.0289204 ++++++++++++++++++++++++++++to 0.0289204
Heightened Def Con from 0.0289204 ++++++++++++++++++++++++++++to 0.0289204
Heightened Def Con from 0.0289204 ++++++++++++++++++++++++++++to 0.0289204
Heightened Def Con from 0.0289204 ++++++++++++++++++++++++++++to 0.0289204
Heightened Def Con from 0.0289204 ++++++++++++++++++++++++++++to 0.0289204
Heightened Def Con from 0.0289204 ++++++++++++++++++++++++++++to 0.0289204
Heightened Def Con from 0.0289204 ++++++++++++++++++++++++++++to 0.0289204
Heightened Def Con from 0.0289204 ++++++++++++++++++++++++++++to 0.0289204
Heightened Def Con from 0.0289204 ++++++++++++++++++++++++++++to 0.0289204
Heightened Def Con from 0.0289204 ++++++++++++++++++++++++++++to 0.0289204
Heightened Def Con from 0.0289204 ++++++++++++++++++++++++++++to 0.0289204
Heightened Def Con from 0.0289204 ++++++++++++++++++++++++++++to 0.0289204
Heightened Def Con from 0.0289204 ++++++++++++++++++++++++++++to 0.0289204
Heightened Def Con from 0.0289204 ++++++++++++++++++++++++++++to 0.0289204
Heightened Def Con from 0.0289204 ++++++++++++++++++++++++++++to 0.0289204
Heightened Def Con from 0.0289204 ++++++++++++++++++++++++++++to 0.0289204
Heightened Def Con from 0.0289204 ++++++++++++++++++++++++++++to 0.0289204
Heightened Def Con from 0.0289204 ++++++++++++++++++++++++++++to 0.0289204
Heightened Def Con from 0.0289204 ++++++++++++++++++++++++++++to 0.0289204
Heightened Def Con from 0.0289204 ++++++++++++++++++++++++++++to 0.0289204
Heightened Def Con from 0.0289204 ++++++++++++++++++++++++++++to 0.0289204
Heightened Def Con from 0.0289204 ++++++++++++++++++++++++++++to 0.0289204
Heightened Def Con from 0.0289204 ++++++++++++++++++++++++++++to 0.0289204
Heightened Def Con from 0.0289204 ++++++++++++++++++++++++++++to 0.0289204
Heightened Def Con from 0.0289204 ++++++++++++++++++++++++++++to 0.0289204
Heightened Def Con from 0.0289204 ++++++++++++++++++++++++++++to 0.0289204
Heightened Def Con from 0.0289204 ++++++++++++++++++++++++++++to 0.0289204
Heightened Def Con from 0.0289204 ++++++++++++++++++++++++++++to 0.0289204
Heightened Def Con from 0.0289204 ++++++++++++++++++++++++++++to 0.0289204
Heightened Def Con from 0.0289204 ++++++++++++++++++++++++++++to 0.0289204
Heightened Def Con from 0.0289204 ++++++++++++++++++++++++++++to 0.0289204
Heightened Def Con from 0.0289204 ++++++++++++++++++++++++++++to 0.0289204
Heightened Def Con from 0.0289204 ++++++++++++++++++++++++++++to 0.0289204
Heightened Def Con from 0.0289204 ++++++++++++++++++++++++++++to 0.0289204
Heightened Def Con from 0.0289204 ++++++++++++++++++++++++++++to 0.0289204
Heightened Def Con from 0.0289204 ++++++++++++++++++++++++++++to 0.0289204
Heightened Def Con from 0.0289204 ++++++++++++++++++++++++++++to 0.0289204
Heightened Def Con from 0.0289204 ++++++++++++++++++++++++++++to 0.0289204
Heightened Def Con from 0.0289204 ++++++++++++++++++++++++++++to 0.0289204
Heightened Def Con from 0.0289204 ++++++++++++++++++++++++++++to 0.0289204
Heightened Def Con from 0.0289204 ++++++++++++++++++++++++++++to 0.0289204
Heightened Def Con from 0.0289204 ++++++++++++++++++++++++++++to 0.0289204
Heightened Def Con from 0.0289204 ++++++++++++++++++++++++++++to 0.0289204
Heightened Def Con from 0.0289204 ++++++++++++++++++++++++++++to 0.0289204
Heightened Def Con from 0.0289204 ++++++++++++++++++++++++++++to 0.0289204
Heightened Def Con from 0.0289204 ++++++++++++++++++++++++++++to 0.0289204
Heightened Def Con from 0.0289204 ++++++++++++++++++++++++++++to 0.0289204
Heightened Def Con from 0.0289204 ++++++++++++++++++++++++++++to 0.0289204
Heightened Def Con from 0.0289204 ++++++++++++++++++++++++++++to 0.0289204
Heightened Def Con from 0.0289204 ++++++++++++++++++++++++++++to 0.0289204
Heightened Def Con from 0.0289204 ++++++++++++++++++++++++++++to 0.0289204
Heightened Def Con from 0.0289204 ++++++++++++++++++++++++++++to 0.0289204
Heightened Def Con from 0.0289204 ++++++++++++++++++++++++++++to 0.0289204
Heightened Def Con from 0.0289204 ++++++++++++++++++++++++++++to 0.0289204
Heightened Def Con from 0.0289204 ++++++++++++++++++++++++++++to 0.0289204
Heightened Def Con from 0.0289204 ++++++++++++++++++++++++++++to 0.0289204
Heightened Def Con from 0.0289204 ++++++++++++++++++++++++++++to 0.0289204
Heightened Def Con from 0.0289204 ++++++++++++++++++++++++++++to 0.0289204
Heightened Def Con from 0.0289204 ++++++++++++++++++++++++++++to 0.0289204
Heightened Def Con from 0.0289204 ++++++++++++++++++++++++++++to 0.0289204
Heightened Def Con from 0.0289204 ++++++++++++++++++++++++++++to 0.0289204
Heightened Def Con from 0.0289204 ++++++++++++++++++++++++++++to 0.0289204
Heightened Def Con from 0.0289204 ++++++++++++++++++++++++++++to 0.0289204
Heightened Def Con from 0.0289204 ++++++++++++++++++++++++++++to 0.0289204
Heightened Def Con from 0.0289204 ++++++++++++++++++++++++++++to 0.0289204
Heightened Def Con from 0.0289204 ++++++++++++++++++++++++++++to 0.0289204
Heightened Def Con from 0.0289204 ++++++++++++++++++++++++++++to 0.0289204
Heightened Def Con from 0.0289204 ++++++++++++++++++++++++++++to 0.0289204
Heightened Def Con from 0.0289204 ++++++++++++++++++++++++++++to 0.0289204
Heightened Def Con from 0.0289204 ++++++++++++++++++++++++++++to 0.0289204
Heightened Def Con from 0.0289204 ++++++++++++++++++++++++++++to 0.0289204
Heightened Def Con from 0.0289204 ++++++++++++++++++++++++++++to 0.0289204
Heightened Def Con from 0.0289204 ++++++++++++++++++++++++++++to 0.0289204
Heightened Def Con from 0.0289204 ++++++++++++++++++++++++++++to 0.0289204
Heightened Def Con from 0.0289204 ++++++++++++++++++++++++++++to 0.0289204
Heightened Def Con from 0.0289204 ++++++++++++++++++++++++++++to 0.0289204
Heightened Def Con from 0.0289204 ++++++++++++++++++++++++++++to 0.0289204
Heightened Def Con from 0.0289204 ++++++++++++++++++++++++++++to 0.0289204
Heightened Def Con from 0.0289204 ++++++++++++++++++++++++++++to 0.0289204
Heightened Def Con from 0.0289204 ++++++++++++++++++++++++++++to 0.0289204
Heightened Def Con from 0.0289204 ++++++++++++++++++++++++++++to 0.0289204
Heightened Def Con from 0.0289204 ++++++++++++++++++++++++++++to 0.0289204
Heightened Def Con from 0.0289204 ++++++++++++++++++++++++++++to 0.0289204
Heightened Def Con from 0.0289204 ++++++++++++++++++++++++++++to 0.0289204
Heightened Def Con from 0.0289204 ++++++++++++++++++++++++++++to 0.0289204
Heightened Def Con from 0.0289204 ++++++++++++++++++++++++++++to 0.0289204
Heightened Def Con from 0.0289204 ++++++++++++++++++++++++++++to 0.0289204
Heightened Def Con from 0.0289204 ++++++++++++++++++++++++++++to 0.0289204
Heightened Def Con from 0.0289204 ++++++++++++++++++++++++++++to 0.0289204
Heightened Def Con from 0.0289204 ++++++++++++++++++++++++++++to 0.0289204
Heightened Def Con from 0.0289204 ++++++++++++++++++++++++++++to 0.0289204
Heightened Def Con from 0.0289204 ++++++++++++++++++++++++++++to 0.0289204
Heightened Def Con from 0.0289204 ++++++++++++++++++++++++++++to 0.0289204
Heightened Def Con from 0.0289204 ++++++++++++++++++++++++++++to 0.0289204
Heightened Def Con from 0.0289204 ++++++++++++++++++++++++++++to 0.0289204
Heightened Def Con from 0.0289204 ++++++++++++++++++++++++++++to 0.0289205
Heightened Def Con from 0.0289205 ++++++++++++++++++++++++++++to 0.0289205
Heightened Def Con from 0.0289205 ++++++++++++++++++++++++++++to 0.0289205
Heightened Def Con from 0.0289205 ++++++++++++++++++++++++++++to 0.0289205
Heightened Def Con from 0.0289205 ++++++++++++++++++++++++++++to 0.0289205
Heightened Def Con from 0.0289205 ++++++++++++++++++++++++++++to 0.0289205
Heightened Def Con from 0.0289205 ++++++++++++++++++++++++++++to 0.0289205
Heightened Def Con from 0.0289205 ++++++++++++++++++++++++++++to 0.0289205
Heightened Def Con from 0.0289205 ++++++++++++++++++++++++++++to 0.0289205
Heightened Def Con from 0.0289205 ++++++++++++++++++++++++++++to 0.0289205
Heightened Def Con from 0.0289205 ++++++++++++++++++++++++++++to 0.0289205
Heightened Def Con from 0.0289205 ++++++++++++++++++++++++++++to 0.0289205
Heightened Def Con from 0.0289205 ++++++++++++++++++++++++++++to 0.0289205
Heightened Def Con from 0.0289205 ++++++++++++++++++++++++++++to 0.0289205
Heightened Def Con from 0.0289205 ++++++++++++++++++++++++++++to 0.0289205
Heightened Def Con from 0.0289205 ++++++++++++++++++++++++++++to 0.0289205
Heightened Def Con from 0.0289205 ++++++++++++++++++++++++++++to 0.0289205
Heightened Def Con from 0.0289205 ++++++++++++++++++++++++++++to 0.0289205
Heightened Def Con from 0.0289205 ++++++++++++++++++++++++++++to 0.0289205
Heightened Def Con from 0.0289205 ++++++++++++++++++++++++++++to 0.0289205
Heightened Def Con from 0.0289205 ++++++++++++++++++++++++++++to 0.0289205
Heightened Def Con from 0.0289205 ++++++++++++++++++++++++++++to 0.0289205
Heightened Def Con from 0.0289205 ++++++++++++++++++++++++++++to 0.0289205
Heightened Def Con from 0.0289205 ++++++++++++++++++++++++++++to 0.0289205
Heightened Def Con from 0.0289205 ++++++++++++++++++++++++++++to 0.0289205
Heightened Def Con from 0.0289205 ++++++++++++++++++++++++++++to 0.0289205
Heightened Def Con from 0.0289205 ++++++++++++++++++++++++++++to 0.0289205
Heightened Def Con from 0.0289205 ++++++++++++++++++++++++++++to 0.0289205
Heightened Def Con from 0.0289205 ++++++++++++++++++++++++++++to 0.0289205
Heightened Def Con from 0.0289205 ++++++++++++++++++++++++++++to 0.0289205
Heightened Def Con from 0.0289205 ++++++++++++++++++++++++++++to 0.0289205
Heightened Def Con from 0.0289205 ++++++++++++++++++++++++++++to 0.0289205
Heightened Def Con from 0.0289205 ++++++++++++++++++++++++++++to 0.0289205
Heightened Def Con from 0.0289205 ++++++++++++++++++++++++++++to 0.0289205
Heightened Def Con from 0.0289205 ++++++++++++++++++++++++++++to 0.0289205
Heightened Def Con from 0.0289205 ++++++++++++++++++++++++++++to 0.0289205
Heightened Def Con from 0.0289205 ++++++++++++++++++++++++++++to 0.0289205
Heightened Def Con from 0.0289205 ++++++++++++++++++++++++++++to 0.0289205
Heightened Def Con from 0.0289205 ++++++++++++++++++++++++++++to 0.0289205
Heightened Def Con from 0.0289205 ++++++++++++++++++++++++++++to 0.0289205
Heightened Def Con from 0.0289205 ++++++++++++++++++++++++++++to 0.0289205
Heightened Def Con from 0.0289205 ++++++++++++++++++++++++++++to 0.0289205
Heightened Def Con from 0.0289205 ++++++++++++++++++++++++++++to 0.0289205
Heightened Def Con from 0.0289205 ++++++++++++++++++++++++++++to 0.0289205
Heightened Def Con from 0.0289205 ++++++++++++++++++++++++++++to 0.0289205
Heightened Def Con from 0.0289205 ++++++++++++++++++++++++++++to 0.0289205
Heightened Def Con from 0.0289205 ++++++++++++++++++++++++++++to 0.0289205
Heightened Def Con from 0.0289205 ++++++++++++++++++++++++++++to 0.0289205
Heightened Def Con from 0.0289205 ++++++++++++++++++++++++++++to 0.0289205
Heightened Def Con from 0.0289205 ++++++++++++++++++++++++++++to 0.0289205
Heightened Def Con from 0.0289205 ++++++++++++++++++++++++++++to 0.0289205
Heightened Def Con from 0.0289205 ++++++++++++++++++++++++++++to 0.0289205
Heightened Def Con from 0.0289205 ++++++++++++++++++++++++++++to 0.0289205
Heightened Def Con from 0.0289205 ++++++++++++++++++++++++++++to 0.0289205
Heightened Def Con from 0.0289205 ++++++++++++++++++++++++++++to 0.0289205
Heightened Def Con from 0.0289205 ++++++++++++++++++++++++++++to 0.0289205
Heightened Def Con from 0.0289205 ++++++++++++++++++++++++++++to 0.0289205
Heightened Def Con from 0.0289205 ++++++++++++++++++++++++++++to 0.0289205
Heightened Def Con from 0.0289205 ++++++++++++++++++++++++++++to 0.0289205
Heightened Def Con from 0.0289205 ++++++++++++++++++++++++++++to 0.0289205
Heightened Def Con from 0.0289205 ++++++++++++++++++++++++++++to 0.0289205
Heightened Def Con from 0.0289205 ++++++++++++++++++++++++++++to 0.0289205
Heightened Def Con from 0.0289205 ++++++++++++++++++++++++++++to 0.0289205
Heightened Def Con from 0.0289205 ++++++++++++++++++++++++++++to 0.0289205
Heightened Def Con from 0.0289205 ++++++++++++++++++++++++++++to 0.0289205
Heightened Def Con from 0.0289205 ++++++++++++++++++++++++++++to 0.0289205
Heightened Def Con from 0.0289205 ++++++++++++++++++++++++++++to 0.0289205
Heightened Def Con from 0.0289205 ++++++++++++++++++++++++++++to 0.0289205
Heightened Def Con from 0.0289205 ++++++++++++++++++++++++++++to 0.0289205
Heightened Def Con from 0.0289205 ++++++++++++++++++++++++++++to 0.0289205
Heightened Def Con from 0.0289205 ++++++++++++++++++++++++++++to 0.0289205
Heightened Def Con from 0.0289205 ++++++++++++++++++++++++++++to 0.0289205
Heightened Def Con from 0.0289205 ++++++++++++++++++++++++++++to 0.0289205
Heightened Def Con from 0.0289205 ++++++++++++++++++++++++++++to 0.0289205
Heightened Def Con from 0.0289205 ++++++++++++++++++++++++++++to 0.0289205
Heightened Def Con from 0.0289205 ++++++++++++++++++++++++++++to 0.0289205
Heightened Def Con from 0.0289205 ++++++++++++++++++++++++++++to 0.0289205
Heightened Def Con from 0.0289205 ++++++++++++++++++++++++++++to 0.0289205
Heightened Def Con from 0.0289205 ++++++++++++++++++++++++++++to 0.0289205
Heightened Def Con from 0.0289205 ++++++++++++++++++++++++++++to 0.0289205
Heightened Def Con from 0.0289205 ++++++++++++++++++++++++++++to 0.0289205
Heightened Def Con from 0.0289205 ++++++++++++++++++++++++++++to 0.0289205
Heightened Def Con from 0.0289205 ++++++++++++++++++++++++++++to 0.0289205
Heightened Def Con from 0.0289205 ++++++++++++++++++++++++++++to 0.0289205
Heightened Def Con from 0.0289205 ++++++++++++++++++++++++++++to 0.0289205
Heightened Def Con from 0.0289205 ++++++++++++++++++++++++++++to 0.0289205
Heightened Def Con from 0.0289205 ++++++++++++++++++++++++++++to 0.0289205
Heightened Def Con from 0.0289205 ++++++++++++++++++++++++++++to 0.0289205
Heightened Def Con from 0.0289205 ++++++++++++++++++++++++++++to 0.0289205
Heightened Def Con from 0.0289205 ++++++++++++++++++++++++++++to 0.0289205
Heightened Def Con from 0.0289205 ++++++++++++++++++++++++++++to 0.0289205
Heightened Def Con from 0.0289205 ++++++++++++++++++++++++++++to 0.0289205
Heightened Def Con from 0.0289205 ++++++++++++++++++++++++++++to 0.0289205
Heightened Def Con from 0.0289205 ++++++++++++++++++++++++++++to 0.0289205
Heightened Def Con from 0.0289205 ++++++++++++++++++++++++++++to 0.0289205
Heightened Def Con from 0.0289205 ++++++++++++++++++++++++++++to 0.0289205
Heightened Def Con from 0.0289205 ++++++++++++++++++++++++++++to 0.0289205
Heightened Def Con from 0.0289205 ++++++++++++++++++++++++++++to 0.0289205
Heightened Def Con from 0.0289205 ++++++++++++