Circuit: * C:\Users\_\Downloads\vlsi doubts\adc\T_FF_test.asc

Instance "m:x1:18": Length shorter than recommended for a level 1 MOSFET.
Instance "m:x1:17": Length shorter than recommended for a level 1 MOSFET.
Instance "m:x1:16": Length shorter than recommended for a level 1 MOSFET.
Instance "m:x1:15": Length shorter than recommended for a level 1 MOSFET.
Instance "m:x1:14": Length shorter than recommended for a level 1 MOSFET.
Instance "m:x1:13": Length shorter than recommended for a level 1 MOSFET.
Instance "m:x1:12": Length shorter than recommended for a level 1 MOSFET.
Instance "m:x1:11": Length shorter than recommended for a level 1 MOSFET.
Instance "m:x1:10": Length shorter than recommended for a level 1 MOSFET.
Instance "m:x1:9": Length shorter than recommended for a level 1 MOSFET.
Instance "m:x1:8": Length shorter than recommended for a level 1 MOSFET.
Instance "m:x1:7": Length shorter than recommended for a level 1 MOSFET.
Instance "m:x1:6": Length shorter than recommended for a level 1 MOSFET.
Instance "m:x1:5": Length shorter than recommended for a level 1 MOSFET.
Instance "m:x1:4": Length shorter than recommended for a level 1 MOSFET.
Instance "m:x1:3": Length shorter than recommended for a level 1 MOSFET.
Instance "m:x1:2": Length shorter than recommended for a level 1 MOSFET.
Instance "m:x1:1": Length shorter than recommended for a level 1 MOSFET.
Direct Newton iteration failed to find .op point.  (Use ".option noopiter" to skip.)
Starting Gmin stepping
Gmin = 10
Gmin = 1.07374
Gmin = 0.115292
Gmin = 0.0123794
Gmin = 0.00132923
Gmin = 0.000142725
Gmin = 1.5325e-005
Gmin = 1.6455e-006
Gmin = 1.76685e-007
Gmin = 1.89714e-008
Gmin = 2.03704e-009
Gmin = 2.18725e-010
Gmin = 2.34854e-011
Gmin = 2.52173e-012
Gmin = 2.70769e-013
Gmin = 0
Gmin stepping succeeded in finding the operating point.

Heightened Def Con from 4.85951e-005 +++++++++++++++++++++++++++++to 4.85961e-005
Heightened Def Con from 4.85961e-005 +++++++++++++++++++++++++++++to 4.85971e-005
Heightened Def Con from 4.85971e-005 +++++++++++++++++++++++++++++to 4.85981e-005
Heightened Def Con from 4.85981e-005 +++++++++++++++++++++++++++++to 4.85991e-005
Heightened Def Con from 4.85991e-005 +++++++++++++++++++++++++++++to 4.86001e-005
Heightened Def Con from 4.86001e-005 +++++++++++++++++++++++++++++to 4.86011e-005
Heightened Def Con from 4.86011e-005 +++++++++++++++++++++++++++++to 4.86021e-005
Heightened Def Con from 4.86021e-005 +++++++++++++++++++++++++++++to 4.86031e-005
Heightened Def Con from 4.86031e-005 +++++++++++++++++++++++++++++to 4.86041e-005
Heightened Def Con from 4.86041e-005 +++++++++++++++++++++++++++++to 4.86051e-005
Heightened Def Con from 4.86051e-005 +++++++++++++++++++++++++++++to 4.86061e-005
Heightened Def Con from 4.86061e-005 +++++++++++++++++++++++++++++to 4.86071e-005
Heightened Def Con from 4.86071e-005 +++++++++++++++++++++++++++++to 4.86081e-005
Heightened Def Con from 4.86081e-005 +++++++++++++++++++++++++++++to 4.86091e-005
Heightened Def Con from 4.86091e-005 +++++++++++++++++++++++++++++to 4.86101e-005
Heightened Def Con from 4.86101e-005 +++++++++++++++++++++++++++++to 4.86111e-005
Heightened Def Con from 4.86111e-005 +++++++++++++++++++++++++++++to 4.86121e-005
Heightened Def Con from 4.86121e-005 +++++++++++++++++++++++++++++to 4.86131e-005
Heightened Def Con from 4.86131e-005 +++++++++++++++++++++++++++++to 4.86141e-005
Heightened Def Con from 4.86141e-005 +++++++++++++++++++++++++++++to 4.86151e-005
Heightened Def Con from 4.86151e-005 +++++++++++++++++++++++++++++to 4.86161e-005
Heightened Def Con from 4.86161e-005 +++++++++++++++++++++++++++++to 4.86171e-005
Heightened Def Con from 4.86171e-005 +++++++++++++++++++++++++++++to 4.86181e-005
Heightened Def Con from 4.86181e-005 +++++++++++++++++++++++++++++to 4.86191e-005
Heightened Def Con from 4.86191e-005 +++++++++++++++++++++++++++++to 4.86201e-005
Heightened Def Con from 4.86201e-005 +++++++++++++++++++++++++++++to 4.86211e-005
Heightened Def Con from 4.86211e-005 +++++++++++++++++++++++++++++to 4.86221e-005
Heightened Def Con from 4.86221e-005 +++++++++++++++++++++++++++++to 4.86231e-005
Heightened Def Con from 4.86231e-005 +++++++++++++++++++++++++++++to 4.86241e-005
Heightened Def Con from 4.86241e-005 +++++++++++++++++++++++++++++to 4.86251e-005
Heightened Def Con from 4.86251e-005 +++++++++++++++++++++++++++++to 4.86261e-005
Heightened Def Con from 4.86261e-005 +++++++++++++++++++++++++++++to 4.86271e-005
Heightened Def Con from 4.86271e-005 +++++++++++++++++++++++++++++to 4.86281e-005
Heightened Def Con from 4.86281e-005 +++++++++++++++++++++++++++++to 4.86291e-005
Heightened Def Con from 4.86291e-005 +++++++++++++++++++++++++++++to 4.86301e-005
Heightened Def Con from 4.86301e-005 +++++++++++++++++++++++++++++to 4.86311e-005
Heightened Def Con from 4.86311e-005 +++++++++++++++++++++++++++++to 4.86321e-005
Heightened Def Con from 4.86321e-005 +++++++++++++++++++++++++++++to 4.86331e-005
Heightened Def Con from 4.86331e-005 +++++++++++++++++++++++++++++to 4.86341e-005
Heightened Def Con from 4.86341e-005 +++++++++++++++++++++++++++++to 4.86351e-005
Heightened Def Con from 4.86351e-005 +++++++++++++++++++++++++++++to 4.86361e-005
Heightened Def Con from 4.86361e-005 +++++++++++++++++++++++++++++to 4.86371e-005
Heightened Def Con from 4.86371e-005 +++++++++++++++++++++++++++++to 4.86381e-005
Heightened Def Con from 4.86381e-005 +++++++++++++++++++++++++++++to 4.86391e-005
Heightened Def Con from 4.86391e-005 +++++++++++++++++++++++++++++to 4.86401e-005
Heightened Def Con from 4.86401e-005 +++++++++++++++++++++++++++++to 4.86411e-005
Heightened Def Con from 4.86411e-005 +++++++++++++++++++++++++++++to 4.86421e-005
Heightened Def Con from 4.86421e-005 +++++++++++++++++++++++++++++to 4.86431e-005
Heightened Def Con from 4.86431e-005 +++++++++++++++++++++++++++++to 4.86441e-005
Heightened Def Con from 4.86441e-005 +++++++++++++++++++++++++++++to 4.86451e-005
Heightened Def Con from 4.86451e-005 +++++++++++++++++++++++++++++to 4.86461e-005
Heightened Def Con from 4.86461e-005 +++++++++++++++++++++++++++++to 4.86471e-005
Heightened Def Con from 4.86471e-005 +++++++++++++++++++++++++++++to 4.86481e-005
Heightened Def Con from 4.86481e-005 +++++++++++++++++++++++++++++to 4.86491e-005
Heightened Def Con from 4.86491e-005 +++++++++++++++++++++++++++++to 4.86501e-005
Heightened Def Con from 4.86501e-005 +++++++++++++++++++++++++++++to 4.86511e-005
Heightened Def Con from 4.86511e-005 +++++++++++++++++++++++++++++to 4.86521e-005
Heightened Def Con from 4.86521e-005 +++++++++++++++++++++++++++++to 4.86531e-005
Heightened Def Con from 4.86531e-005 +++++++++++++++++++++++++++++to 4.86541e-005
Heightened Def Con from 4.86541e-005 +++++++++++++++++++++++++++++to 4.86551e-005
Heightened Def Con from 4.86551e-005 +++++++++++++++++++++++++++++to 4.86561e-005
Heightened Def Con from 4.86561e-005 +++++++++++++++++++++++++++++to 4.86571e-005
Heightened Def Con from 4.86571e-005 +++++++++++++++++++++++++++++to 4.86581e-005
Heightened Def Con from 4.86581e-005 +++++++++++++++++++++++++++++to 4.86591e-005
Heightened Def Con from 4.86591e-005 +++++++++++++++++++++++++++++to 4.86601e-005
Heightened Def Con from 4.86601e-005 +++++++++++++++++++++++++++++to 4.86611e-005
Heightened Def Con from 4.86611e-005 +++++++++++++++++++++++++++++to 4.86621e-005
Heightened Def Con from 4.86621e-005 +++++++++++++++++++++++++++++to 4.86631e-005
Heightened Def Con from 4.86631e-005 +++++++++++++++++++++++++++++to 4.86641e-005
Heightened Def Con from 4.86641e-005 +++++++++++++++++++++++++++++to 4.86651e-005
Heightened Def Con from 4.86651e-005 +++++++++++++++++++++++++++++to 4.86661e-005
Heightened Def Con from 4.86661e-005 +++++++++++++++++++++++++++++to 4.86671e-005
Heightened Def Con from 4.86671e-005 +++++++++++++++++++++++++++++to 4.86681e-005
Heightened Def Con from 4.86681e-005 +++++++++++++++++++++++++++++to 4.86691e-005
Heightened Def Con from 4.86691e-005 +++++++++++++++++++++++++++++to 4.86701e-005
Heightened Def Con from 4.86701e-005 +++++++++++++++++++++++++++++to 4.86711e-005
Heightened Def Con from 4.86711e-005 +++++++++++++++++++++++++++++to 4.86721e-005
Heightened Def Con from 4.86721e-005 +++++++++++++++++++++++++++++to 4.86731e-005
Heightened Def Con from 4.86731e-005 +++++++++++++++++++++++++++++to 4.86741e-005
Heightened Def Con from 4.86741e-005 +++++++++++++++++++++++++++++to 4.86751e-005
Heightened Def Con from 4.86751e-005 +++++++++++++++++++++++++++++to 4.86761e-005
Heightened Def Con from 4.86761e-005 +++++++++++++++++++++++++++++to 4.86771e-005
Heightened Def Con from 4.86771e-005 +++++++++++++++++++++++++++++to 4.86781e-005
Heightened Def Con from 4.86781e-005 +++++++++++++++++++++++++++++to 4.86791e-005
Heightened Def Con from 4.86791e-005 +++++++++++++++++++++++++++++to 4.86801e-005
Heightened Def Con from 4.86801e-005 +++++++++++++++++++++++++++++to 4.86811e-005
Heightened Def Con from 4.86811e-005 +++++++++++++++++++++++++++++to 4.86821e-005
Heightened Def Con from 4.86821e-005 +++++++++++++++++++++++++++++to 4.86831e-005
Heightened Def Con from 4.86831e-005 +++++++++++++++++++++++++++++to 4.86841e-005
Heightened Def Con from 4.86841e-005 +++++++++++++++++++++++++++++to 4.86851e-005
Heightened Def Con from 4.86851e-005 +++++++++++++++++++++++++++++to 4.86861e-005
Heightened Def Con from 4.86861e-005 +++++++++++++++++++++++++++++to 4.86871e-005
Heightened Def Con from 4.86871e-005 +++++++++++++++++++++++++++++to 4.86881e-005
Heightened Def Con from 4.86881e-005 +++++++++++++++++++++++++++++to 4.86891e-005
Heightened Def Con from 4.86891e-005 +++++++++++++++++++++++++++++to 4.86901e-005
Heightened Def Con from 4.86901e-005 +++++++++++++++++++++++++++++to 4.86911e-005
Heightened Def Con from 4.86911e-005 +++++++++++++++++++++++++++++to 4.86921e-005
Heightened Def Con from 4.86921e-005 +++++++++++++++++++++++++++++to 4.86931e-005
Heightened Def Con from 4.86931e-005 +++++++++++++++++++++++++++++to 4.86941e-005
Heightened Def Con from 4.86941e-005 +++++++++++++++++++++++++++++to 4.86951e-005
Heightened Def Con from 4.86951e-005 +++++++++++++++++++++++++++++to 4.86961e-005
Heightened Def Con from 4.86961e-005 +++++++++++++++++++++++++++++to 4.86971e-005
Heightened Def Con from 4.86971e-005 +++++++++++++++++++++++++++++to 4.86981e-005
Heightened Def Con from 4.86981e-005 +++++++++++++++++++++++++++++to 4.86991e-005
Heightened Def Con from 4.86991e-005 +++++++++++++++++++++++++++++to 4.87001e-005
Heightened Def Con from 4.87001e-005 +++++++++++++++++++++++++++++to 4.87011e-005
Heightened Def Con from 4.87011e-005 +++++++++++++++++++++++++++++to 4.87021e-005
Heightened Def Con from 4.87021e-005 +++++++++++++++++++++++++++++to 4.87031e-005
Heightened Def Con from 4.87031e-005 +++++++++++++++++++++++++++++to 4.87041e-005
Heightened Def Con from 4.87041e-005 +++++++++++++++++++++++++++++to 4.87051e-005
Heightened Def Con from 4.87051e-005 +++++++++++++++++++++++++++++to 4.87061e-005
Heightened Def Con from 4.87061e-005 +++++++++++++++++++++++++++++to 4.87071e-005
Heightened Def Con from 4.87071e-005 +++++++++++++++++++++++++++++to 4.87081e-005
Heightened Def Con from 4.87081e-005 +++++++++++++++++++++++++++++to 4.87091e-005
Heightened Def Con from 4.87091e-005 +++++++++++++++++++++++++++++to 4.87101e-005
Heightened Def Con from 4.87101e-005 +++++++++++++++++++++++++++++to 4.87111e-005
Heightened Def Con from 4.87111e-005 +++++++++++++++++++++++++++++to 4.87121e-005
Heightened Def Con from 4.87121e-005 +++++++++++++++++++++++++++++to 4.87131e-005
Heightened Def Con from 4.87131e-005 +++++++++++++++++++++++++++++to 4.87141e-005
Heightened Def Con from 4.87141e-005 +++++++++++++++++++++++++++++to 4.87151e-005
Heightened Def Con from 4.87151e-005 +++++++++++++++++++++++++++++to 4.87161e-005
Heightened Def Con from 4.87161e-005 +++++++++++++++++++++++++++++to 4.87171e-005
Heightened Def Con from 4.87171e-005 +++++++++++++++++++++++++++++to 4.87181e-005
Heightened Def Con from 4.87181e-005 +++++++++++++++++++++++++++++to 4.87191e-005
Heightened Def Con from 4.87191e-005 +++++++++++++++++++++++++++++to 4.87201e-005
Heightened Def Con from 4.87201e-005 +++++++++++++++++++++++++++++to 4.87211e-005
Heightened Def Con from 4.87211e-005 +++++++++++++++++++++++++++++to 4.87221e-005
Heightened Def Con from 4.87221e-005 +++++++++++++++++++++++++++++to 4.87231e-005
Heightened Def Con from 4.87231e-005 +++++++++++++++++++++++++++++to 4.87241e-005
Heightened Def Con from 4.87241e-005 +++++++++++++++++++++++++++++to 4.87251e-005
Heightened Def Con from 4.87251e-005 +++++++++++++++++++++++++++++to 4.87261e-005
Heightened Def Con from 4.87261e-005 +++++++++++++++++++++++++++++to 4.87271e-005
Heightened Def Con from 4.87271e-005 +++++++++++++++++++++++++++++to 4.87281e-005
Heightened Def Con from 4.87281e-005 +++++++++++++++++++++++++++++to 4.87291e-005
Heightened Def Con from 4.87291e-005 +++++++++++++++++++++++++++++to 4.87301e-005
Heightened Def Con from 4.87301e-005 +++++++++++++++++++++++++++++to 4.87311e-005
Heightened Def Con from 4.87311e-005 +++++++++++++++++++++++++++++to 4.87321e-005
Heightened Def Con from 4.87321e-005 +++++++++++++++++++++++++++++to 4.87331e-005
Heightened Def Con from 4.87331e-005 +++++++++++++++++++++++++++++to 4.87341e-005
Heightened Def Con from 4.87341e-005 +++++++++++++++++++++++++++++to 4.87351e-005
Heightened Def Con from 4.87351e-005 +++++++++++++++++++++++++++++to 4.87361e-005
Heightened Def Con from 4.87361e-005 +++++++++++++++++++++++++++++to 4.87371e-005
Heightened Def Con from 4.87371e-005 +++++++++++++++++++++++++++++to 4.87381e-005
Heightened Def Con from 4.87381e-005 +++++++++++++++++++++++++++++to 4.87391e-005
Heightened Def Con from 4.87391e-005 +++++++++++++++++++++++++++++to 4.87401e-005
Heightened Def Con from 4.87401e-005 +++++++++++++++++++++++++++++to 4.87411e-005
Heightened Def Con from 4.87411e-005 +++++++++++++++++++++++++++++to 4.87421e-005
Heightened Def Con from 4.87421e-005 +++++++++++++++++++++++++++++to 4.87431e-005
Heightened Def Con from 4.87431e-005 +++++++++++++++++++++++++++++to 4.87441e-005
Heightened Def Con from 4.87441e-005 +++++++++++++++++++++++++++++to 4.87451e-005
Heightened Def Con from 4.87451e-005 +++++++++++++++++++++++++++++to 4.87461e-005
Heightened Def Con from 4.87461e-005 +++++++++++++++++++++++++++++to 4.87471e-005
Heightened Def Con from 4.87471e-005 +++++++++++++++++++++++++++++to 4.87481e-005
Heightened Def Con from 4.87481e-005 +++++++++++++++++++++++++++++to 4.87491e-005
Heightened Def Con from 4.87491e-005 +++++++++++++++++++++++++++++to 4.87501e-005
Heightened Def Con from 4.87501e-005 +++++++++++++++++++++++++++++to 4.87511e-005
Heightened Def Con from 4.87511e-005 +++++++++++++++++++++++++++++to 4.87521e-005
Heightened Def Con from 4.87521e-005 +++++++++++++++++++++++++++++to 4.87531e-005
Heightened Def Con from 4.87531e-005 +++++++++++++++++++++++++++++to 4.87541e-005
Heightened Def Con from 4.87541e-005 +++++++++++++++++++++++++++++to 4.87551e-005
Heightened Def Con from 4.87551e-005 +++++++++++++++++++++++++++++to 4.87561e-005
Heightened Def Con from 4.87561e-005 +++++++++++++++++++++++++++++to 4.87571e-005
Heightened Def Con from 4.87571e-005 +++++++++++++++++++++++++++++to 4.87581e-005
Heightened Def Con from 4.87581e-005 +++++++++++++++++++++++++++++to 4.87591e-005
Heightened Def Con from 4.87591e-005 +++++++++++++++++++++++++++++to 4.87601e-005
Heightened Def Con from 4.87601e-005 +++++++++++++++++++++++++++++to 4.87611e-005
Heightened Def Con from 4.87611e-005 +++++++++++++++++++++++++++++to 4.87621e-005
Heightened Def Con from 4.87621e-005 +++++++++++++++++++++++++++++to 4.87631e-005
Heightened Def Con from 4.87631e-005 +++++++++++++++++++++++++++++to 4.87641e-005
Heightened Def Con from 4.87641e-005 +++++++++++++++++++++++++++++to 4.87651e-005
Heightened Def Con from 4.87651e-005 +++++++++++++++++++++++++++++to 4.87661e-005
Heightened Def Con from 4.87661e-005 +++++++++++++++++++++++++++++to 4.87671e-005
Heightened Def Con from 4.87671e-005 +++++++++++++++++++++++++++++to 4.87681e-005
Heightened Def Con from 4.87681e-005 +++++++++++++++++++++++++++++to 4.87691e-005
Heightened Def Con from 4.87691e-005 +++++++++++++++++++++++++++++to 4.87701e-005
Heightened Def Con from 4.87701e-005 +++++++++++++++++++++++++++++to 4.87711e-005
Heightened Def Con from 4.87711e-005 +++++++++++++++++++++++++++++to 4.87721e-005
Heightened Def Con from 4.87721e-005 +++++++++++++++++++++++++++++to 4.87731e-005
Heightened Def Con from 4.87731e-005 +++++++++++++++++++++++++++++to 4.87741e-005
Heightened Def Con from 4.87741e-005 +++++++++++++++++++++++++++++to 4.87751e-005
Heightened Def Con from 4.87751e-005 +++++++++++++++++++++++++++++to 4.87761e-005
Heightened Def Con from 4.87761e-005 +++++++++++++++++++++++++++++to 4.87771e-005
Heightened Def Con from 4.87771e-005 +++++++++++++++++++++++++++++to 4.87781e-005
Heightened Def Con from 4.87781e-005 +++++++++++++++++++++++++++++to 4.87791e-005
Heightened Def Con from 4.87791e-005 +++++++++++++++++++++++++++++to 4.87801e-005
Heightened Def Con from 4.87801e-005 +++++++++++++++++++++++++++++to 4.87811e-005
Heightened Def Con from 4.87811e-005 +++++++++++++++++++++++++++++to 4.87821e-005
Heightened Def Con from 4.87821e-005 +++++++++++++++++++++++++++++to 4.87831e-005
Heightened Def Con from 4.87831e-005 +++++++++++++++++++++++++++++to 4.87841e-005
Heightened Def Con from 4.87841e-005 +++++++++++++++++++++++++++++to 4.87851e-005
Heightened Def Con from 4.87851e-005 +++++++++++++++++++++++++++++to 4.87861e-005
Heightened Def Con from 4.87861e-005 +++++++++++++++++++++++++++++to 4.87871e-005
Heightened Def Con from 4.87871e-005 +++++++++++++++++++++++++++++to 4.87881e-005
Heightened Def Con from 4.87881e-005 +++++++++++++++++++++++++++++to 4.87891e-005
Heightened Def Con from 4.87891e-005 +++++++++++++++++++++++++++++to 4.87901e-005
Heightened Def Con from 4.87901e-005 +++++++++++++++++++++++++++++to 4.87911e-005
Heightened Def Con from 4.87911e-005 +++++++++++++++++++++++++++++to 4.87921e-005
Heightened Def Con from 4.87921e-005 +++++++++++++++++++++++++++++to 4.87931e-005
Heightened Def Con from 4.87931e-005 +++++++++++++++++++++++++++++to 4.87941e-005
Heightened Def Con from 4.87941e-005 +++++++++++++++++++++++++++++to 4.87951e-005
Heightened Def Con from 4.87951e-005 +++++++++++++++++++++++++++++to 4.87961e-005
Heightened Def Con from 4.87961e-005 +++++++++++++++++++++++++++++to 4.87971e-005
Heightened Def Con from 4.87971e-005 +++++++++++++++++++++++++++++to 4.87981e-005
Heightened Def Con from 4.87981e-005 +++++++++++++++++++++++++++++to 4.87991e-005
Heightened Def Con from 4.87991e-005 +++++++++++++++++++++++++++++to 4.88001e-005
Heightened Def Con from 4.88001e-005 +++++++++++++++++++++++++++++to 4.88011e-005
Heightened Def Con from 4.88011e-005 +++++++++++++++++++++++++++++to 4.88021e-005
Heightened Def Con from 4.88021e-005 +++++++++++++++++++++++++++++to 4.88031e-005
Heightened Def Con from 4.88031e-005 +++++++++++++++++++++++++++++to 4.88041e-005
Heightened Def Con from 4.88041e-005 +++++++++++++++++++++++++++++to 4.88051e-005
Heightened Def Con from 4.88051e-005 +++++++++++++++++++++++++++++to 4.88061e-005
Heightened Def Con from 4.88061e-005 +++++++++++++++++++++++++++++to 4.88071e-005
Heightened Def Con from 4.88071e-005 +++++++++++++++++++++++++++++to 4.88081e-005
Heightened Def Con from 4.88081e-005 +++++++++++++++++++++++++++++to 4.88091e-005
Heightened Def Con from 4.88091e-005 +++++++++++++++++++++++++++++to 4.88101e-005
Heightened Def Con from 4.88101e-005 +++++++++++++++++++++++++++++to 4.88111e-005
Heightened Def Con from 4.88111e-005 +++++++++++++++++++++++++++++to 4.88121e-005
Heightened Def Con from 4.88121e-005 +++++++++++++++++++++++++++++to 4.88131e-005
Heightened Def Con from 4.88131e-005 +++++++++++++++++++++++++++++to 4.88141e-005
Heightened Def Con from 4.88141e-005 +++++++++++++++++++++++++++++to 4.88151e-005
Heightened Def Con from 4.88151e-005 +++++++++++++++++++++++++++++to 4.88161e-005
Heightened Def Con from 4.88161e-005 +++++++++++++++++++++++++++++to 4.88171e-005
Heightened Def Con from 4.88171e-005 +++++++++++++++++++++++++++++to 4.88181e-005
Heightened Def Con from 4.88181e-005 +++++++++++++++++++++++++++++to 4.88191e-005
Heightened Def Con from 4.88191e-005 +++++++++++++++++++++++++++++to 4.88201e-005
Heightened Def Con from 4.88201e-005 +++++++++++++++++++++++++++++to 4.88211e-005
Heightened Def Con from 4.88211e-005 +++++++++++++++++++++++++++++to 4.88221e-005
Heightened Def Con from 4.88221e-005 +++++++++++++++++++++++++++++to 4.88231e-005
Heightened Def Con from 4.88231e-005 +++++++++++++++++++++++++++++to 4.88241e-005
Heightened Def Con from 4.88241e-005 +++++++++++++++++++++++++++++to 4.88251e-005
Heightened Def Con from 4.88251e-005 +++++++++++++++++++++++++++++to 4.88261e-005
Heightened Def Con from 4.88261e-005 +++++++++++++++++++++++++++++to 4.88271e-005
Heightened Def Con from 4.88271e-005 +++++++++++++++++++++++++++++to 4.88281e-005
Heightened Def Con from 4.88281e-005 +++++++++++++++++++++++++++++to 4.88291e-005
Heightened Def Con from 4.88291e-005 +++++++++++++++++++++++++++++to 4.88301e-005
Heightened Def Con from 4.88301e-005 +++++++++++++++++++++++++++++to 4.88311e-005
Heightened Def Con from 4.88311e-005 +++++++++++++++++++++++++++++to 4.88321e-005
Heightened Def Con from 4.88321e-005 +++++++++++++++++++++++++++++to 4.88331e-005
Heightened Def Con from 4.88331e-005 +++++++++++++++++++++++++++++to 4.88341e-005
Heightened Def Con from 4.88341e-005 +++++++++++++++++++++++++++++to 4.88351e-005
Heightened Def Con from 4.88351e-005 +++++++++++++++++++++++++++++to 4.88361e-005
Heightened Def Con from 4.88361e-005 +++++++++++++++++++++++++++++to 4.88371e-005
Heightened Def Con from 4.88371e-005 +++++++++++++++++++++++++++++to 4.88381e-005
Heightened Def Con from 4.88381e-005 +++++++++++++++++++++++++++++to 4.88391e-005
Heightened Def Con from 4.88391e-005 +++++++++++++++++++++++++++++to 4.88401e-005
Heightened Def Con from 4.88401e-005 +++++++++++++++++++++++++++++to 4.88411e-005
Heightened Def Con from 4.88411e-005 +++++++++++++++++++++++++++++to 4.88421e-005
Heightened Def Con from 4.88421e-005 +++++++++++++++++++++++++++++to 4.88431e-005
Heightened Def Con from 4.88431e-005 +++++++++++++++++++++++++++++to 4.88441e-005
Heightened Def Con from 4.88441e-005 +++++++++++++++++++++++++++++to 4.88451e-005
Heightened Def Con from 4.88451e-005 +++++++++++++++++++++++++++++to 4.88461e-005
Heightened Def Con from 4.88461e-005 +++++++++++++++++++++++++++++to 4.88471e-005
Heightened Def Con from 4.88471e-005 +++++++++++++++++++++++++++++to 4.88481e-005
Heightened Def Con from 4.88481e-005 +++++++++++++++++++++++++++++to 4.88491e-005
Heightened Def Con from 4.88491e-005 +++++++++++++++++++++++++++++to 4.88501e-005
Heightened Def Con from 4.88501e-005 +++++++++++++++++++++++++++++to 4.88511e-005
Heightened Def Con from 4.88511e-005 +++++++++++++++++++++++++++++to 4.88521e-005
Heightened Def Con from 4.88521e-005 +++++++++++++++++++++++++++++to 4.88531e-005
Heightened Def Con from 4.88531e-005 +++++++++++++++++++++++++++++to 4.88541e-005
Heightened Def Con from 4.88541e-005 +++++++++++++++++++++++++++++to 4.88551e-005
Heightened Def Con from 4.88551e-005 +++++++++++++++++++++++++++++to 4.88561e-005
Heightened Def Con from 4.88561e-005 +++++++++++++++++++++++++++++to 4.88571e-005
Heightened Def Con from 4.88571e-005 +++++++++++++++++++++++++++++to 4.88581e-005
Heightened Def Con from 4.88581e-005 +++++++++++++++++++++++++++++to 4.88591e-005
Heightened Def Con from 4.88591e-005 +++++++++++++++++++++++++++++to 4.88601e-005
Heightened Def Con from 4.88601e-005 +++++++++++++++++++++++++++++to 4.88611e-005
Heightened Def Con from 4.88611e-005 +++++++++++++++++++++++++++++to 4.88621e-005
Heightened Def Con from 4.88621e-005 +++++++++++++++++++++++++++++to 4.88631e-005
Heightened Def Con from 4.88631e-005 +++++++++++++++++++++++++++++to 4.88641e-005
Heightened Def Con from 4.88641e-005 +++++++++++++++++++++++++++++to 4.88651e-005
Heightened Def Con from 4.88651e-005 +++++++++++++++++++++++++++++to 4.88661e-005
Heightened Def Con from 4.88661e-005 +++++++++++++++++++++++++++++to 4.88671e-005
Heightened Def Con from 4.88671e-005 +++++++++++++++++++++++++++++to 4.88681e-005
Heightened Def Con from 4.88681e-005 +++++++++++++++++++++++++++++to 4.88691e-005
Heightened Def Con from 4.88691e-005 +++++++++++++++++++++++++++++to 4.88701e-005
Heightened Def Con from 4.88701e-005 +++++++++++++++++++++++++++++to 4.88711e-005
Heightened Def Con from 4.88711e-005 +++++++++++++++++++++++++++++to 4.88721e-005
Heightened Def Con from 4.88721e-005 +++++++++++++++++++++++++++++to 4.88731e-005
Heightened Def Con from 4.88731e-005 +++++++++++++++++++++++++++++to 4.88741e-005
Heightened Def Con from 4.88741e-005 +++++++++++++++++++++++++++++to 4.88751e-005
Heightened Def Con from 4.88751e-005 +++++++++++++++++++++++++++++to 4.88761e-005
Heightened Def Con from 4.88761e-005 +++++++++++++++++++++++++++++to 4.88771e-005
Heightened Def Con from 4.88771e-005 +++++++++++++++++++++++++++++to 4.88781e-005
Heightened Def Con from 4.88781e-005 +++++++++++++++++++++++++++++to 4.88791e-005
Heightened Def Con from 4.88791e-005 +++++++++++++++++++++++++++++to 4.88801e-005
Heightened Def Con from 4.88801e-005 +++++++++++++++++++++++++++++to 4.88811e-005
Heightened Def Con from 4.88811e-005 +++++++++++++++++++++++++++++to 4.88821e-005
Heightened Def Con from 4.88821e-005 +++++++++++++++++++++++++++++to 4.88831e-005
Heightened Def Con from 4.88831e-005 +++++++++++++++++++++++++++++to 4.88841e-005
Heightened Def Con from 4.88841e-005 +++++++++++++++++++++++++++++to 4.88851e-005
Heightened Def Con from 4.88851e-005 +++++++++++++++++++++++++++++to 4.88861e-005
Heightened Def Con from 4.88861e-005 +++++++++++++++++++++++++++++to 4.88871e-005
Heightened Def Con from 4.88871e-005 +++++++++++++++++++++++++++++to 4.88881e-005
Heightened Def Con from 4.88881e-005 +++++++++++++++++++++++++++++to 4.88891e-005
Heightened Def Con from 4.88891e-005 +++++++++++++++++++++++++++++to 4.88901e-005
Heightened Def Con from 4.88901e-005 +++++++++++++++++++++++++++++to 4.88911e-005
Heightened Def Con from 4.88911e-005 +++++++++++++++++++++++++++++to 4.88921e-005
Heightened Def Con from 4.88921e-005 +++++++++++++++++++++++++++++to 4.88931e-005
Heightened Def Con from 4.88931e-005 +++++++++++++++++++++++++++++to 4.88941e-005
Heightened Def Con from 4.88941e-005 +++++++++++++++++++++++++++++to 4.88951e-005
Heightened Def Con from 4.88951e-005 +++++++++++++++++++++++++++++to 4.88961e-005
Heightened Def Con from 4.88961e-005 +++++++++++++++++++++++++++++to 4.88971e-005
Heightened Def Con from 4.88971e-005 +++++++++++++++++++++++++++++to 4.88981e-005
Heightened Def Con from 4.88981e-005 +++++++++++++++++++++++++++++to 4.88991e-005
Heightened Def Con from 4.88991e-005 +++++++++++++++++++++++++++++to 4.89001e-005
Heightened Def Con from 4.89001e-005 +++++++++++++++++++++++++++++to 4.89011e-005
Heightened Def Con from 4.89011e-005 +++++++++++++++++++++++++++++to 4.89021e-005
Heightened Def Con from 4.89021e-005 +++++++++++++++++++++++++++++to 4.89031e-005
Heightened Def Con from 4.89031e-005 +++++++++++++++++++++++++++++to 4.89041e-005
Heightened Def Con from 4.89041e-005 +++++++++++++++++++++++++++++to 4.89051e-005
Heightened Def Con from 4.89051e-005 +++++++++++++++++++++++++++++to 4.89061e-005
Heightened Def Con from 4.89061e-005 +++++++++++++++++++++++++++++to 4.89071e-005
Heightened Def Con from 4.89071e-005 +++++++++++++++++++++++++++++to 4.89081e-005
Heightened Def Con from 4.89081e-005 +++++++++++++++++++++++++++++to 4.89091e-005
Heightened Def Con from 4.89091e-005 +++++++++++++++++++++++++++++to 4.89101e-005
Heightened Def Con from 4.89101e-005 +++++++++++++++++++++++++++++to 4.89111e-005
Heightened Def Con from 4.89111e-005 +++++++++++++++++++++++++++++to 4.89121e-005
Heightened Def Con from 4.89121e-005 +++++++++++++++++++++++++++++to 4.89131e-005
Heightened Def Con from 4.89131e-005 +++++++++++++++++++++++++++++to 4.89141e-005
Heightened Def Con from 4.89141e-005 +++++++++++++++++++++++++++++to 4.89151e-005
Heightened Def Con from 4.89151e-005 +++++++++++++++++++++++++++++to 4.89161e-005
Heightened Def Con from 4.89161e-005 +++++++++++++++++++++++++++++to 4.89171e-005
Heightened Def Con from 4.89171e-005 +++++++++++++++++++++++++++++to 4.89181e-005
Heightened Def Con from 4.89181e-005 +++++++++++++++++++++++++++++to 4.89191e-005
Heightened Def Con from 4.89191e-005 +++++++++++++++++++++++++++++to 4.89201e-005
Heightened Def Con from 4.89201e-005 +++++++++++++++++++++++++++++to 4.89211e-005
Heightened Def Con from 4.89211e-005 +++++++++++++++++++++++++++++to 4.89221e-005
Heightened Def Con from 4.89221e-005 +++++++++++++++++++++++++++++to 4.89231e-005
Heightened Def Con from 4.89231e-005 +++++++++++++++++++++++++++++to 4.89241e-005
Heightened Def Con from 4.89241e-005 +++++++++++++++++++++++++++++to 4.89251e-005
Heightened Def Con from 4.89251e-005 +++++++++++++++++++++++++++++to 4.89261e-005
Heightened Def Con from 4.89261e-005 +++++++++++++++++++++++++++++to 4.89271e-005
Heightened Def Con from 4.89271e-005 +++++++++++++++++++++++++++++to 4.89281e-005
Heightened Def Con from 4.89281e-005 +++++++++++++++++++++++++++++to 4.89291e-005
Heightened Def Con from 4.89291e-005 +++++++++++++++++++++++++++++to 4.89301e-005
Heightened Def Con from 4.89301e-005 +++++++++++++++++++++++++++++to 4.89311e-005
Heightened Def Con from 4.89311e-005 +++++++++++++++++++++++++++++to 4.89321e-005
Heightened Def Con from 4.89321e-005 +++++++++++++++++++++++++++++to 4.89331e-005
Heightened Def Con from 4.89331e-005 +++++++++++++++++++++++++++++to 4.89341e-005
Heightened Def Con from 4.89341e-005 +++++++++++++++++++++++++++++to 4.89351e-005
Heightened Def Con from 4.89351e-005 +++++++++++++++++++++++++++++to 4.89361e-005
Heightened Def Con from 4.89361e-005 +++++++++++++++++++++++++++++to 4.89371e-005
Heightened Def Con from 4.89371e-005 +++++++++++++++++++++++++++++to 4.89381e-005
Heightened Def Con from 4.89381e-005 +++++++++++++++++++++++++++++to 4.89391e-005
Heightened Def Con from 4.89391e-005 +++++++++++++++++++++++++++++to 4.89401e-005
Heightened Def Con from 4.89401e-005 +++++++++++++++++++++++++++++to 4.89411e-005
Heightened Def Con from 4.89411e-005 +++++++++++++++++++++++++++++to 4.89421e-005
Heightened Def Con from 4.89421e-005 +++++++++++++++++++++++++++++to 4.89431e-005
Heightened Def Con from 4.89431e-005 +++++++++++++++++++++++++++++to 4.89441e-005
Heightened Def Con from 4.89441e-005 +++++++++++++++++++++++++++++to 4.89451e-005
Heightened Def Con from 4.89451e-005 +++++++++++++++++++++++++++++to 4.89461e-005
Heightened Def Con from 4.89461e-005 +++++++++++++++++++++++++++++to 4.89471e-005
Heightened Def Con from 4.89471e-005 +++++++++++++++++++++++++++++to 4.89481e-005
Heightened Def Con from 4.89481e-005 +++++++++++++++++++++++++++++to 4.89491e-005
Heightened Def Con from 4.89491e-005 +++++++++++++++++++++++++++++to 4.89501e-005
Heightened Def Con from 4.89501e-005 +++++++++++++++++++++++++++++to 4.89511e-005
Heightened Def Con from 4.89511e-005 +++++++++++++++++++++++++++++to 4.89521e-005
Heightened Def Con from 4.89521e-005 +++++++++++++++++++++++++++++to 4.89531e-005
Heightened Def Con from 4.89531e-005 +++++++++++++++++++++++++++++to 4.89541e-005
Heightened Def Con from 4.89541e-005 +++++++++++++++++++++++++++++to 4.89551e-005
Heightened Def Con from 4.89551e-005 +++++++++++++++++++++++++++++to 4.89561e-005
Heightened Def Con from 4.89561e-005 +++++++++++++++++++++++++++++to 4.89571e-005
Heightened Def Con from 4.89571e-005 +++++++++++++++++++++++++++++to 4.89581e-005
Heightened Def Con from 4.89581e-005 +++++++++++++++++++++++++++++to 4.89591e-005
Heightened Def Con from 4.89591e-005 +++++++++++++++++++++++++++++to 4.89601e-005
Heightened Def Con from 4.89601e-005 +++++++++++++++++++++++++++++to 4.89611e-005
Heightened Def Con from 4.89611e-005 +++++++++++++++++++++++++++++to 4.89621e-005
Heightened Def Con from 4.89621e-005 +++++++++++++++++++++++++++++to 4.89631e-005
Heightened Def Con from 4.89631e-005 +++++++++++++++++++++++++++++to 4.89641e-005
Heightened Def Con from 4.89641e-005 +++++++++++++++++++++++++++++to 4.89651e-005
Heightened Def Con from 4.89651e-005 +++++++++++++++++++++++++++++to 4.89661e-005
Heightened Def Con from 4.89661e-005 +++++++++++++++++++++++++++++to 4.89671e-005
Heightened Def Con from 4.89671e-005 +++++++++++++++++++++++++++++to 4.89681e-005
Heightened Def Con from 4.89681e-005 +++++++++++++++++++++++++++++to 4.89691e-005
Heightened Def Con from 4.89691e-005 +++++++++++++++++++++++++++++to 4.89701e-005
Heightened Def Con from 4.89701e-005 +++++++++++++++++++++++++++++to 4.89711e-005
Heightened Def Con from 4.89711e-005 +++++++++++++++++++++++++++++to 4.89721e-005
Heightened Def Con from 4.89721e-005 +++++++++++++++++++++++++++++to 4.89731e-005
Heightened Def Con from 4.89731e-005 +++++++++++++++++++++++++++++to 4.89741e-005
Heightened Def Con from 4.89741e-005 +++++++++++++++++++++++++++++to 4.89751e-005
Heightened Def Con from 4.89751e-005 +++++++++++++++++++++++++++++to 4.89761e-005
Heightened Def Con from 4.89761e-005 +++++++++++++++++++++++++++++to 4.89771e-005
Heightened Def Con from 4.89771e-005 +++++++++++++++++++++++++++++to 4.89781e-005
Heightened Def Con from 4.89781e-005 +++++++++++++++++++++++++++++to 4.89791e-005
Heightened Def Con from 4.89791e-005 +++++++++++++++++++++++++++++to 4.89801e-005
Heightened Def Con from 4.89801e-005 +++++++++++++++++++++++++++++to 4.89811e-005
Heightened Def Con from 4.89811e-005 +++++++++++++++++++++++++++++to 4.89821e-005
Heightened Def Con from 4.89821e-005 +++++++++++++++++++++++++++++to 4.89831e-005
Heightened Def Con from 4.89831e-005 +++++++++++++++++++++++++++++to 4.89841e-005
Heightened Def Con from 4.89841e-005 +++++++++++++++++++++++++++++to 4.89851e-005
Heightened Def Con from 4.89851e-005 +++++++++++++++++++++++++++++to 4.89861e-005
Heightened Def Con from 4.89861e-005 +++++++++++++++++++++++++++++to 4.89871e-005
Heightened Def Con from 4.89871e-005 +++++++++++++++++++++++++++++to 4.89881e-005
Heightened Def Con from 4.89881e-005 +++++++++++++++++++++++++++++to 4.89891e-005
Heightened Def Con from 4.89891e-005 +++++++++++++++++++++++++++++to 4.89901e-005
Heightened Def Con from 4.89901e-005 +++++++++++++++++++++++++++++to 4.89911e-005
Heightened Def Con from 4.89911e-005 +++++++++++++++++++++++++++++to 4.89921e-005
Heightened Def Con from 4.89921e-005 +++++++++++++++++++++++++++++to 4.89931e-005
Heightened Def Con from 4.89931e-005 +++++++++++++++++++++++++++++to 4.89941e-005
Heightened Def Con from 4.89941e-005 +++++++++++++++++++++++++++++to 4.89951e-005
Heightened Def Con from 4.89951e-005 +++++++++++++++++++++++++++++to 4.89961e-005
Heightened Def Con from 4.89961e-005 +++++++++++++++++++++++++++++to 4.89971e-005
Heightened Def Con from 4.89971e-005 +++++++++++++++++++++++++++++to 4.89981e-005
Heightened Def Con from 4.89981e-005 +++++++++++++++++++++++++++++to 4.89991e-005
Heightened Def Con from 4.89991e-005 +++++++++++++++++++++++++++++to 4.90001e-005
Heightened Def Con from 4.90001e-005 +++++++++++++++++++++++++++++to 4.90011e-005
Heightened Def Con from 4.90011e-005 +++++++++++++++++++++++++++++to 4.90021e-005
Heightened Def Con from 4.90021e-005 +++++++++++++++++++++++++++++to 4.90031e-005
Heightened Def Con from 4.90031e-005 +++++++++++++++++++++++++++++to 4.90041e-005
Heightened Def Con from 4.90041e-005 +++++++++++++++++++++++++++++to 4.90051e-005
Heightened Def Con from 4.90051e-005 +++++++++++++++++++++++++++++to 4.90061e-005
Heightened Def Con from 4.90061e-005 +++++++++++++++++++++++++++++to 4.90071e-005
Heightened Def Con from 4.90071e-005 +++++++++++++++++++++++++++++to 4.90081e-005
Heightened Def Con from 4.90081e-005 +++++++++++++++++++++++++++++to 4.90091e-005
Heightened Def Con from 4.90091e-005 +++++++++++++++++++++++++++++to 4.90101e-005
Heightened Def Con from 4.90101e-005 +++++++++++++++++++++++++++++to 4.90111e-005
Heightened Def Con from 4.90111e-005 +++++++++++++++++++++++++++++to 4.90121e-005
Heightened Def Con from 4.90121e-005 +++++++++++++++++++++++++++++to 4.90131e-005
Heightened Def Con from 4.90131e-005 +++++++++++++++++++++++++++++to 4.90141e-005
Heightened Def Con from 4.90141e-005 +++++++++++++++++++++++++++++to 4.90151e-005
Heightened Def Con from 4.90151e-005 +++++++++++++++++++++++++++++to 4.90161e-005
Heightened Def Con from 4.90161e-005 +++++++++++++++++++++++++++++to 4.90171e-005
Heightened Def Con from 4.90171e-005 +++++++++++++++++++++++++++++to 4.90181e-005
Heightened Def Con from 4.90181e-005 +++++++++++++++++++++++++++++to 4.90191e-005
Heightened Def Con from 4.90191e-005 +++++++++++++++++++++++++++++to 4.90201e-005
Heightened Def Con from 4.90201e-005 +++++++++++++++++++++++++++++to 4.90211e-005
Heightened Def Con from 4.90211e-005 +++++++++++++++++++++++++++++to 4.90221e-005
Heightened Def Con from 4.90221e-005 +++++++++++++++++++++++++++++to 4.90231e-005
Heightened Def Con from 4.90231e-005 +++++++++++++++++++++++++++++to 4.90241e-005
Heightened Def Con from 4.90241e-005 +++++++++++++++++++++++++++++to 4.90251e-005
Heightened Def Con from 4.90251e-005 +++++++++++++++++++++++++++++to 4.90261e-005
Heightened Def Con from 4.90261e-005 +++++++++++++++++++++++++++++to 4.90271e-005
Heightened Def Con from 4.90271e-005 +++++++++++++++++++++++++++++to 4.90281e-005
Heightened Def Con from 4.90281e-005 +++++++++++++++++++++++++++++to 4.90291e-005
Heightened Def Con from 4.90291e-005 +++++++++++++++++++++++++++++to 4.90301e-005
Heightened Def Con from 4.90301e-005 +++++++++++++++++++++++++++++to 4.90311e-005
Heightened Def Con from 4.90311e-005 +++++++++++++++++++++++++++++to 4.90321e-005
Heightened Def Con from 4.90321e-005 +++++++++++++++++++++++++++++to 4.90331e-005
Heightened Def Con from 4.90331e-005 +++++++++++++++++++++++++++++to 4.90341e-005
Heightened Def Con from 4.90341e-005 +++++++++++++++++++++++++++++to 4.90351e-005
Heightened Def Con from 4.90351e-005 +++++++++++++++++++++++++++++to 4.90361e-005
Heightened Def Con from 4.90361e-005 +++++++++++++++++++++++++++++to 4.90371e-005
Heightened Def Con from 4.90371e-005 +++++++++++++++++++++++++++++to 4.90381e-005
Heightened Def Con from 4.90381e-005 +++++++++++++++++++++++++++++to 4.90391e-005
Heightened Def Con from 4.90391e-005 +++++++++++++++++++++++++++++to 4.90401e-005
Heightened Def Con from 4.90401e-005 +++++++++++++++++++++++++++++to 4.90411e-005
Heightened Def Con from 4.90411e-005 +++++++++++++++++++++++++++++to 4.90421e-005
Heightened Def Con from 4.90421e-005 +++++++++++++++++++++++++++++to 4.90431e-005
Heightened Def Con from 4.90431e-005 +++++++++++++++++++++++++++++to 4.90441e-005
Heightened Def Con from 4.90441e-005 +++++++++++++++++++++++++++++to 4.90451e-005
Heightened Def Con from 4.90451e-005 +++++++++++++++++++++++++++++to 4.90461e-005
Heightened Def Con from 4.90461e-005 +++++++++++++++++++++++++++++to 4.90471e-005
Heightened Def Con from 4.90471e-005 +++++++++++++++++++++++++++++to 4.90481e-005
Heightened Def Con from 4.90481e-005 +++++++++++++++++++++++++++++to 4.90491e-005
Heightened Def Con from 4.90491e-005 +++++++++++++++++++++++++++++to 4.90501e-005
Heightened Def Con from 4.90501e-005 +++++++++++++++++++++++++++++to 4.90511e-005
Heightened Def Con from 4.90511e-005 +++++++++++++++++++++++++++++to 4.90521e-005
Heightened Def Con from 4.90521e-005 +++++++++++++++++++++++++++++to 4.90531e-005
Heightened Def Con from 4.90531e-005 +++++++++++++++++++++++++++++to 4.90541e-005
Heightened Def Con from 4.90541e-005 +++++++++++++++++++++++++++++to 4.90551e-005
Heightened Def Con from 4.90551e-005 +++++++++++++++++++++++++++++to 4.90561e-005
Heightened Def Con from 4.90561e-005 +++++++++++++++++++++++++++++to 4.90571e-005
Heightened Def Con from 4.90571e-005 +++++++++++++++++++++++++++++to 4.90581e-005
Heightened Def Con from 4.90581e-005 +++++++++++++++++++++++++++++to 4.90591e-005
Heightened Def Con from 4.90591e-005 +++++++++++++++++++++++++++++to 4.90601e-005
Heightened Def Con from 4.90601e-005 +++++++++++++++++++++++++++++to 4.90611e-005
Heightened Def Con from 4.90611e-005 +++++++++++++++++++++++++++++to 4.90621e-005
Heightened Def Con from 4.90621e-005 +++++++++++++++++++++++++++++to 4.90631e-005
Heightened Def Con from 4.90631e-005 +++++++++++++++++++++++++++++to 4.90641e-005
Heightened Def Con from 4.90641e-005 +++++++++++++++++++++++++++++to 4.90651e-005
Heightened Def Con from 4.90651e-005 +++++++++++++++++++++++++++++to 4.90661e-005
Heightened Def Con from 4.90661e-005 +++++++++++++++++++++++++++++to 4.90671e-005
Heightened Def Con from 4.90671e-005 +++++++++++++++++++++++++++++to 4.90681e-005
Heightened Def Con from 4.90681e-005 +++++++++++++++++++++++++++++to 4.90691e-005
Heightened Def Con from 4.90691e-005 +++++++++++++++++++++++++++++to 4.90701e-005
Heightened Def Con from 4.90701e-005 +++++++++++++++++++++++++++++to 4.90711e-005
Heightened Def Con from 4.90711e-005 +++++++++++++++++++++++++++++to 4.90721e-005
Heightened Def Con from 4.90721e-005 +++++++++++++++++++++++++++++to 4.90731e-005
Heightened Def Con from 4.90731e-005 +++++++++++++++++++++++++++++to 4.90741e-005
Heightened Def Con from 4.90741e-005 +++++++++++++++++++++++++++++to 4.90751e-005
Heightened Def Con from 4.90751e-005 +++++++++++++++++++++++++++++to 4.90761e-005
Heightened Def Con from 4.90761e-005 +++++++++++++++++++++++++++++to 4.90771e-005
Heightened Def Con from 4.90771e-005 +++++++++++++++++++++++++++++to 4.90781e-005
Heightened Def Con from 4.90781e-005 +++++++++++++++++++++++++++++to 4.90791e-005
Heightened Def Con from 4.90791e-005 +++++++++++++++++++++++++++++to 4.90801e-005
Heightened Def Con from 4.90801e-005 +++++++++++++++++++++++++++++to 4.90811e-005
Heightened Def Con from 4.90811e-005 +++++++++++++++++++++++++++++to 4.90821e-005
Heightened Def Con from 4.90821e-005 +++++++++++++++++++++++++++++to 4.90831e-005
Heightened Def Con from 4.90831e-005 +++++++++++++++++++++++++++++to 4.90841e-005
Heightened Def Con from 4.90841e-005 +++++++++++++++++++++++++++++to 4.90851e-005
Heightened Def Con from 4.90851e-005 +++++++++++++++++++++++++++++to 4.90861e-005
Heightened Def Con from 4.90861e-005 +++++++++++++++++++++++++++++to 4.90871e-005
Heightened Def Con from 4.90871e-005 +++++++++++++++++++++++++++++to 4.90881e-005
Heightened Def Con from 4.90881e-005 +++++++++++++++++++++++++++++to 4.90891e-005
Heightened Def Con from 4.90891e-005 +++++++++++++++++++++++++++++to 4.90901e-005
Heightened Def Con from 4.90901e-005 +++++++++++++++++++++++++++++to 4.90911e-005
Heightened Def Con from 4.90911e-005 +++++++++++++++++++++++++++++to 4.90921e-005
Heightened Def Con from 4.90921e-005 +++++++++++++++++++++++++++++to 4.90931e-005
Heightened Def Con from 4.90931e-005 +++++++++++++++++++++++++++++to 4.90941e-005
Heightened Def Con from 4.90941e-005 +++++++++++++++++++++++++++++to 4.90951e-005
Heightened Def Con from 4.90951e-005 +++++++++++++++++++++++++++++to 4.90961e-005
Heightened Def Con from 4.90961e-005 +++++++++++++++++++++++++++++to 4.90971e-005
Heightened Def Con from 4.90971e-005 +++++++++++++++++++++++++++++to 4.90981e-005
Heightened Def Con from 4.90981e-005 +++++++++++++++++++++++++++++to 4.90991e-005
Heightened Def Con from 4.90991e-005 +++++++++++++++++++++++++++++to 4.91001e-005
Heightened Def Con from 4.91001e-005 +++++++++++++++++++++++++++++to 4.91011e-005
Heightened Def Con from 4.91011e-005 +++++++++++++++++++++++++++++to 4.91021e-005
Heightened Def Con from 4.91021e-005 +++++++++++++++++++++++++++++to 4.91031e-005
Heightened Def Con from 4.91031e-005 +++++++++++++++++++++++++++++to 4.91041e-005
Heightened Def Con from 4.91041e-005 +++++++++++++++++++++++++++++to 4.91051e-005
Heightened Def Con from 4.91051e-005 +++++++++++++++++++++++++++++to 4.91061e-005
Heightened Def Con from 4.91061e-005 +++++++++++++++++++++++++++++to 4.91071e-005
Heightened Def Con from 4.91071e-005 +++++++++++++++++++++++++++++to 4.91081e-005
Heightened Def Con from 4.91081e-005 +++++++++++++++++++++++++++++to 4.91091e-005
Heightened Def Con from 4.91091e-005 +++++++++++++++++++++++++++++to 4.91101e-005
Heightened Def Con from 4.91101e-005 +++++++++++++++++++++++++++++to 4.91111e-005
Heightened Def Con from 4.91111e-005 +++++++++++++++++++++++++++++to 4.91121e-005
Heightened Def Con from 4.91121e-005 +++++++++++++++++++++++++++++to 4.91131e-005
Heightened Def Con from 4.91131e-005 +++++++++++++++++++++++++++++to 4.91141e-005
Heightened Def Con from 4.91141e-005 +++++++++++++++++++++++++++++to 4.91151e-005
Heightened Def Con from 4.91151e-005 +++++++++++++++++++++++++++++to 4.91161e-005
Heightened Def Con from 4.91161e-005 +++++++++++++++++++++++++++++to 4.91171e-005
Heightened Def Con from 4.91171e-005 +++++++++++++++++++++++++++++to 4.91181e-005
Heightened Def Con from 4.91181e-005 +++++++++++++++++++++++++++++to 4.91191e-005
Heightened Def Con from 4.91191e-005 +++++++++++++++++++++++++++++to 4.91201e-005
Heightened Def Con from 4.91201e-005 +++++++++++++++++++++++++++++to 4.91211e-005
Heightened Def Con from 4.91211e-005 +++++++++++++++++++++++++++++to 4.91221e-005
Heightened Def Con from 4.91221e-005 +++++++++++++++++++++++++++++to 4.91231e-005
Heightened Def Con from 4.91231e-005 +++++++++++++++++++++++++++++to 4.91241e-005
Heightened Def Con from 4.91241e-005 +++++++++++++++++++++++++++++to 4.91251e-005
Heightened Def Con from 4.91251e-005 +++++++++++++++++++++++++++++to 4.91261e-005
Heightened Def Con from 4.91261e-005 +++++++++++++++++++++++++++++to 4.91271e-005
Heightened Def Con from 4.91271e-005 +++++++++++++++++++++++++++++to 4.91281e-005
Heightened Def Con from 4.91281e-005 +++++++++++++++++++++++++++++to 4.91291e-005
Heightened Def Con from 4.91291e-005 +++++++++++++++++++++++++++++to 4.91301e-005
Heightened Def Con from 4.91301e-005 +++++++++++++++++++++++++++++to 4.91311e-005
Heightened Def Con from 4.91311e-005 +++++++++++++++++++++++++++++to 4.91321e-005
Heightened Def Con from 4.91321e-005 +++++++++++++++++++++++++++++to 4.91331e-005
Heightened Def Con from 4.91331e-005 +++++++++++++++++++++++++++++to 4.91341e-005
Heightened Def Con from 4.91341e-005 +++++++++++++++++++++++++++++to 4.91351e-005
Heightened Def Con from 4.91351e-005 +++++++++++++++++++++++++++++to 4.91361e-005
Heightened Def Con from 4.91361e-005 +++++++++++++++++++++++++++++to 4.91371e-005
Heightened Def Con from 4.91371e-005 +++++++++++++++++++++++++++++to 4.91381e-005
Heightened Def Con from 4.91381e-005 +++++++++++++++++++++++++++++to 4.91391e-005
Heightened Def Con from 4.91391e-005 +++++++++++++++++++++++++++++to 4.91401e-005
Heightened Def Con from 4.91401e-005 +++++++++++++++++++++++++++++to 4.91411e-005
Heightened Def Con from 4.91411e-005 +++++++++++++++++++++++++++++to 4.91421e-005
Heightened Def Con from 4.91421e-005 +++++++++++++++++++++++++++++to 4.91431e-005
Heightened Def Con from 4.91431e-005 +++++++++++++++++++++++++++++to 4.91441e-005
Heightened Def Con from 4.91441e-005 +++++++++++++++++++++++++++++to 4.91451e-005
Heightened Def Con from 4.91451e-005 +++++++++++++++++++++++++++++to 4.91461e-005
Heightened Def Con from 4.91461e-005 +++++++++++++++++++++++++++++to 4.91471e-005
Heightened Def Con from 4.91471e-005 +++++++++++++++++++++++++++++to 4.91481e-005
Heightened Def Con from 4.91481e-005 +++++++++++++++++++++++++++++to 4.91491e-005
Heightened Def Con from 4.91491e-005 +++++++++++++++++++++++++++++to 4.91501e-005
Heightened Def Con from 4.91501e-005 +++++++++++++++++++++++++++++to 4.91511e-005
Heightened Def Con from 4.91511e-005 +++++++++++++++++++++++++++++to 4.91521e-005
Heightened Def Con from 4.91521e-005 +++++++++++++++++++++++++++++to 4.91531e-005
Heightened Def Con from 4.91531e-005 +++++++++++++++++++++++++++++to 4.91541e-005
Heightened Def Con from 4.91541e-005 +++++++++++++++++++++++++++++to 4.91551e-005
Heightened Def Con from 4.91551e-005 +++++++++++++++++++++++++++++to 4.91561e-005
Heightened Def Con from 4.91561e-005 +++++++++++++++++++++++++++++to 4.91571e-005
Heightened Def Con from 4.91571e-005 +++++++++++++++++++++++++++++to 4.91581e-005
Heightened Def Con from 4.91581e-005 +++++++++++++++++++++++++++++to 4.91591e-005
Heightened Def Con from 4.91591e-005 +++++++++++++++++++++++++++++to 4.91601e-005
Heightened Def Con from 4.91601e-005 +++++++++++++++++++++++++++++to 4.91611e-005
Heightened Def Con from 4.91611e-005 +++++++++++++++++++++++++++++to 4.91621e-005
Heightened Def Con from 4.91621e-005 +++++++++++++++++++++++++++++to 4.91631e-005
Heightened Def Con from 4.91631e-005 +++++++++++++++++++++++++++++to 4.91641e-005
Heightened Def Con from 4.91641e-005 +++++++++++++++++++++++++++++to 4.91651e-005
Heightened Def Con from 4.91651e-005 +++++++++++++++++++++++++++++to 4.91661e-005
Heightened Def Con from 4.91661e-005 +++++++++++++++++++++++++++++to 4.91671e-005
Heightened Def Con from 4.91671e-005 +++++++++++++++++++++++++++++to 4.91681e-005
Heightened Def Con from 4.91681e-005 +++++++++++++++++++++++++++++to 4.91691e-005
Heightened Def Con from 4.91691e-005 +++++++++++++++++++++++++++++to 4.91701e-005
Heightened Def Con from 4.91701e-005 +++++++++++++++++++++++++++++to 4.91711e-005
Heightened Def Con from 4.91711e-005 +++++++++++++++++++++++++++++to 4.91721e-005
Heightened Def Con from 4.91721e-005 +++++++++++++++++++++++++++++to 4.91731e-005
Heightened Def Con from 4.91731e-005 +++++++++++++++++++++++++++++to 4.91741e-005
Heightened Def Con from 4.91741e-005 +++++++++++++++++++++++++++++to 4.91751e-005
Heightened Def Con from 4.91751e-005 +++++++++++++++++++++++++++++to 4.91761e-005
Heightened Def Con from 4.91761e-005 +++++++++++++++++++++++++++++to 4.91771e-005
Heightened Def Con from 4.91771e-005 +++++++++++++++++++++++++++++to 4.91781e-005
Heightened Def Con from 4.91781e-005 +++++++++++++++++++++++++++++to 4.91791e-005
Heightened Def Con from 4.91791e-005 +++++++++++++++++++++++++++++to 4.91801e-005
Heightened Def Con from 4.91801e-005 +++++++++++++++++++++++++++++to 4.91811e-005
Heightened Def Con from 4.91811e-005 +++++++++++++++++++++++++++++to 4.91821e-005
Heightened Def Con from 4.91821e-005 +++++++++++++++++++++++++++++to 4.91831e-005
Heightened Def Con from 4.91831e-005 +++++++++++++++++++++++++++++to 4.91841e-005
Heightened Def Con from 4.91841e-005 +++++++++++++++++++++++++++++to 4.91851e-005
Heightened Def Con from 4.91851e-005 +++++++++++++++++++++++++++++to 4.91861e-005
Heightened Def Con from 4.91861e-005 +++++++++++++++++++++++++++++to 4.91871e-005
Heightened Def Con from 4.91871e-005 +++++++++++++++++++++++++++++to 4.91881e-005
Heightened Def Con from 4.91881e-005 +++++++++++++++++++++++++++++to 4.91891e-005
Heightened Def Con from 4.91891e-005 +++++++++++++++++++++++++++++to 4.91901e-005
Heightened Def Con from 4.91901e-005 +++++++++++++++++++++++++++++to 4.91911e-005
Heightened Def Con from 4.91911e-005 +++++++++++++++++++++++++++++to 4.91921e-005
Heightened Def Con from 4.91921e-005 +++++++++++++++++++++++++++++to 4.91931e-005
Heightened Def Con from 4.91931e-005 +++++++++++++++++++++++++++++to 4.91941e-005
Heightened Def Con from 4.91941e-005 +++++++++++++++++++++++++++++to 4.91951e-005
Heightened Def Con from 4.91951e-005 +++++++++++++++++++++++++++++to 4.91961e-005
Heightened Def Con from 4.91961e-005 +++++++++++++++++++++++++++++to 4.91971e-005
Heightened Def Con from 4.91971e-005 +++++++++++++++++++++++++++++to 4.91981e-005
Heightened Def Con from 4.91981e-005 +++++++++++++++++++++++++++++to 4.91991e-005
Heightened Def Con from 4.91991e-005 +++++++++++++++++++++++++++++to 4.92001e-005
Heightened Def Con from 4.92001e-005 +++++++++++++++++++++++++++++to 4.92011e-005
Heightened Def Con from 4.92011e-005 +++++++++++++++++++++++++++++to 4.92021e-005
Heightened Def Con from 4.92021e-005 +++++++++++++++++++++++++++++to 4.92031e-005
Heightened Def Con from 4.92031e-005 +++++++++++++++++++++++++++++to 4.92041e-005
Heightened Def Con from 4.92041e-005 +++++++++++++++++++++++++++++to 4.92051e-005
Heightened Def Con from 4.92051e-005 +++++++++++++++++++++++++++++to 4.92061e-005
Heightened Def Con from 4.92061e-005 +++++++++++++++++++++++++++++to 4.92071e-005
Heightened Def Con from 4.92071e-005 +++++++++++++++++++++++++++++to 4.92081e-005
Heightened Def Con from 4.92081e-005 +++++++++++++++++++++++++++++to 4.92091e-005
Heightened Def Con from 4.92091e-005 +++++++++++++++++++++++++++++to 4.92101e-005
Heightened Def Con from 4.92101e-005 +++++++++++++++++++++++++++++to 4.92111e-005
Heightened Def Con from 4.92111e-005 +++++++++++++++++++++++++++++to 4.92121e-005
Heightened Def Con from 4.92121e-005 +++++++++++++++++++++++++++++to 4.92131e-005
Heightened Def Con from 4.92131e-005 +++++++++++++++++++++++++++++to 4.92141e-005
Heightened Def Con from 4.92141e-005 +++++++++++++++++++++++++++++to 4.92151e-005
Heightened Def Con from 4.92151e-005 +++++++++++++++++++++++++++++to 4.92161e-005
Heightened Def Con from 4.92161e-005 +++++++++++++++++++++++++++++to 4.92171e-005
Heightened Def Con from 4.92171e-005 +++++++++++++++++++++++++++++to 4.92181e-005
Heightened Def Con from 4.92181e-005 +++++++++++++++++++++++++++++to 4.92191e-005
Heightened Def Con from 4.92191e-005 +++++++++++++++++++++++++++++to 4.92201e-005
Heightened Def Con from 4.92201e-005 +++++++++++++++++++++++++++++to 4.92211e-005
Heightened Def Con from 4.92211e-005 +++++++++++++++++++++++++++++to 4.92221e-005
Heightened Def Con from 4.92221e-005 +++++++++++++++++++++++++++++to 4.92231e-005
Heightened Def Con from 4.92231e-005 +++++++++++++++++++++++++++++to 4.92241e-005
Heightened Def Con from 4.92241e-005 +++++++++++++++++++++++++++++to 4.92251e-005
Heightened Def Con from 4.92251e-005 +++++++++++++++++++++++++++++to 4.92261e-005
Heightened Def Con from 4.92261e-005 +++++++++++++++++++++++++++++to 4.92271e-005
Heightened Def Con from 4.92271e-005 +++++++++++++++++++++++++++++to 4.92281e-005
Heightened Def Con from 4.92281e-005 +++++++++++++++++++++++++++++to 4.92291e-005
Heightened Def Con from 4.92291e-005 +++++++++++++++++++++++++++++to 4.92301e-005
Heightened Def Con from 4.92301e-005 +++++++++++++++++++++++++++++to 4.92311e-005
Heightened Def Con from 4.92311e-005 +++++++++++++++++++++++++++++to 4.92321e-005
Heightened Def Con from 4.92321e-005 +++++++++++++++++++++++++++++to 4.92331e-005
Heightened Def Con from 4.92331e-005 +++++++++++++++++++++++++++++to 4.92341e-005
Heightened Def Con from 4.92341e-005 +++++++++++++++++++++++++++++to 4.92351e-005
Heightened Def Con from 4.92351e-005 +++++++++++++++++++++++++++++to 4.92361e-005
Heightened Def Con from 4.92361e-005 +++++++++++++++++++++++++++++to 4.92371e-005
Heightened Def Con from 4.92371e-005 +++++++++++++++++++++++++++++to 4.92381e-005
Heightened Def Con from 4.92381e-005 +++++++++++++++++++++++++++++to 4.92391e-005
Heightened Def Con from 4.92391e-005 +++++++++++++++++++++++++++++to 4.92401e-005
Heightened Def Con from 4.92401e-005 +++++++++++++++++++++++++++++to 4.92411e-005
Heightened Def Con from 4.92411e-005 +++++++++++++++++++++++++++++to 4.92421e-005
Heightened Def Con from 4.92421e-005 +++++++++++++++++++++++++++++to 4.92431e-005
Heightened Def Con from 4.92431e-005 +++++++++++++++++++++++++++++to 4.92441e-005
Heightened Def Con from 4.92441e-005 +++++++++++++++++++++++++++++to 4.92451e-005
Heightened Def Con from 4.92451e-005 +++++++++++++++++++++++++++++to 4.92461e-005
Heightened Def Con from 4.92461e-005 +++++++++++++++++++++++++++++to 4.92471e-005
Heightened Def Con from 4.92471e-005 +++++++++++++++++++++++++++++to 4.92481e-005
Heightened Def Con from 4.92481e-005 +++++++++++++++++++++++++++++to 4.92491e-005
Heightened Def Con from 4.92491e-005 +++++++++++++++++++++++++++++to 4.92501e-005
Heightened Def Con from 4.92501e-005 +++++++++++++++++++++++++++++to 4.92511e-005
Heightened Def Con from 4.92511e-005 +++++++++++++++++++++++++++++to 4.92521e-005
Heightened Def Con from 4.92521e-005 +++++++++++++++++++++++++++++to 4.92531e-005
Heightened Def Con from 4.92531e-005 +++++++++++++++++++++++++++++to 4.92541e-005
Heightened Def Con from 4.92541e-005 +++++++++++++++++++++++++++++to 4.92551e-005
Heightened Def Con from 4.92551e-005 +++++++++++++++++++++++++++++to 4.92561e-005
Heightened Def Con from 4.92561e-005 +++++++++++++++++++++++++++++to 4.92571e-005
Heightened Def Con from 4.92571e-005 +++++++++++++++++++++++++++++to 4.92581e-005
Heightened Def Con from 4.92581e-005 +++++++++++++++++++++++++++++to 4.92591e-005
Heightened Def Con from 4.92591e-005 +++++++++++++++++++++++++++++to 4.92601e-005
Heightened Def Con from 4.92601e-005 +++++++++++++++++++++++++++++to 4.92611e-005
Heightened Def Con from 4.92611e-005 +++++++++++++++++++++++++++++to 4.92621e-005
Heightened Def Con from 4.92621e-005 +++++++++++++++++++++++++++++to 4.92631e-005
Heightened Def Con from 4.92631e-005 +++++++++++++++++++++++++++++to 4.92641e-005
Heightened Def Con from 4.92641e-005 +++++++++++++++++++++++++++++to 4.92651e-005
Heightened Def Con from 4.92651e-005 +++++++++++++++++++++++++++++to 4.92661e-005
Heightened Def Con from 4.92661e-005 +++++++++++++++++++++++++++++to 4.92671e-005
Heightened Def Con from 4.92671e-005 +++++++++++++++++++++++++++++to 4.92681e-005
Heightened Def Con from 4.92681e-005 +++++++++++++++++++++++++++++to 4.92691e-005
Heightened Def Con from 4.92691e-005 +++++++++++++++++++++++++++++to 4.92701e-005
Heightened Def Con from 4.92701e-005 +++++++++++++++++++++++++++++to 4.92711e-005
Heightened Def Con from 4.92711e-005 +++++++++++++++++++++++++++++to 4.92721e-005
Heightened Def Con from 4.92721e-005 +++++++++++++++++++++++++++++to 4.92731e-005
Heightened Def Con from 4.92731e-005 +++++++++++++++++++++++++++++to 4.92741e-005
Heightened Def Con from 4.92741e-005 +++++++++++++++++++++++++++++to 4.92751e-005
Heightened Def Con from 4.92751e-005 +++++++++++++++++++++++++++++to 4.92761e-005
Heightened Def Con from 4.92761e-005 +++++++++++++++++++++++++++++to 4.92771e-005
Heightened Def Con from 4.92771e-005 +++++++++++++++++++++++++++++to 4.92781e-005
Heightened Def Con from 4.92781e-005 +++++++++++++++++++++++++++++to 4.92791e-005
Heightened Def Con from 4.92791e-005 +++++++++++++++++++++++++++++to 4.92801e-005
Heightened Def Con from 4.92801e-005 +++++++++++++++++++++++++++++to 4.92811e-005
Heightened Def Con from 4.92811e-005 +++++++++++++++++++++++++++++to 4.92821e-005
Heightened Def Con from 4.92821e-005 +++++++++++++++++++++++++++++to 4.92831e-005
Heightened Def Con from 4.92831e-005 +++++++++++++++++++++++++++++to 4.92841e-005
Heightened Def Con from 4.92841e-005 +++++++++++++++++++++++++++++to 4.92851e-005
Heightened Def Con from 4.92851e-005 +++++++++++++++++++++++++++++to 4.92861e-005
Heightened Def Con from 4.92861e-005 +++++++++++++++++++++++++++++to 4.92871e-005
Heightened Def Con from 4.92871e-005 +++++++++++++++++++++++++++++to 4.92881e-005
Heightened Def Con from 4.92881e-005 +++++++++++++++++++++++++++++to 4.92891e-005
Heightened Def Con from 4.92891e-005 +++++++++++++++++++++++++++++to 4.92901e-005
Heightened Def Con from 4.92901e-005 +++++++++++++++++++++++++++++to 4.92911e-005
Heightened Def Con from 4.92911e-005 +++++++++++++++++++++++++++++to 4.92921e-005
Heightened Def Con from 4.92921e-005 +++++++++++++++++++++++++++++to 4.92931e-005
Heightened Def Con from 4.92931e-005 +++++++++++++++++++++++++++++to 4.92941e-005
Heightened Def Con from 4.92941e-005 +++++++++++++++++++++++++++++to 4.92951e-005
Heightened Def Con from 4.92951e-005 +++++++++++++++++++++++++++++to 4.92961e-005
Heightened Def Con from 4.92961e-005 +++++++++++++++++++++++++++++to 4.92971e-005
Heightened Def Con from 4.92971e-005 +++++++++++++++++++++++++++++to 4.92981e-005
Heightened Def Con from 4.92981e-005 +++++++++++++++++++++++++++++to 4.92991e-005
Heightened Def Con from 4.92991e-005 +++++++++++++++++++++++++++++to 4.93001e-005
Heightened Def Con from 4.93001e-005 +++++++++++++++++++++++++++++to 4.93011e-005
Heightened Def Con from 4.93011e-005 +++++++++++++++++++++++++++++to 4.93021e-005
Heightened Def Con from 4.93021e-005 +++++++++++++++++++++++++++++to 4.93031e-005
Heightened Def Con from 4.93031e-005 +++++++++++++++++++++++++++++to 4.93041e-005
Heightened Def Con from 4.93041e-005 +++++++++++++++++++++++++++++to 4.93051e-005
Heightened Def Con from 4.93051e-005 +++++++++++++++++++++++++++++to 4.93061e-005
Heightened Def Con from 4.93061e-005 +++++++++++++++++++++++++++++to 4.93071e-005
Heightened Def Con from 4.93071e-005 +++++++++++++++++++++++++++++to 4.93081e-005
Heightened Def Con from 4.93081e-005 +++++++++++++++++++++++++++++to 4.93091e-005
Heightened Def Con from 4.93091e-005 +++++++++++++++++++++++++++++to 4.93101e-005
Heightened Def Con from 4.93101e-005 +++++++++++++++++++++++++++++to 4.93111e-005
Heightened Def Con from 4.93111e-005 +++++++++++++++++++++++++++++to 4.93121e-005
Heightened Def Con from 4.93121e-005 +++++++++++++++++++++++++++++to 4.93131e-005
Heightened Def Con from 4.93131e-005 +++++++++++++++++++++++++++++to 4.93141e-005
Heightened Def Con from 4.93141e-005 +++++++++++++++++++++++++++++to 4.93151e-005
Heightened Def Con from 4.93151e-005 +++++++++++++++++++++++++++++to 4.93161e-005
Heightened Def Con from 4.93161e-005 +++++++++++++++++++++++++++++to 4.93171e-005
Heightened Def Con from 4.93171e-005 +++++++++++++++++++++++++++++to 4.93181e-005
Heightened Def Con from 4.93181e-005 +++++++++++++++++++++++++++++to 4.93191e-005
Heightened Def Con from 4.93191e-005 +++++++++++++++++++++++++++++to 4.93201e-005
Heightened Def Con from 4.93201e-005 +++++++++++++++++++++++++++++to 4.93211e-005
Heightened Def Con from 4.93211e-005 +++++++++++++++++++++++++++++to 4.93221e-005
Heightened Def Con from 4.93221e-005 +++++++++++++++++++++++++++++to 4.93231e-005
Heightened Def Con from 4.93231e-005 +++++++++++++++++++++++++++++to 4.93241e-005
Heightened Def Con from 4.93241e-005 +++++++++++++++++++++++++++++to 4.93251e-005
Heightened Def Con from 4.93251e-005 +++++++++++++++++++++++++++++to 4.93261e-005
Heightened Def Con from 4.93261e-005 +++++++++++++++++++++++++++++to 4.93271e-005
Heightened Def Con from 4.93271e-005 +++++++++++++++++++++++++++++to 4.93281e-005
Heightened Def Con from 4.93281e-005 +++++++++++++++++++++++++++++to 4.93291e-005
Heightened Def Con from 4.93291e-005 +++++++++++++++++++++++++++++to 4.93301e-005
Heightened Def Con from 4.93301e-005 +++++++++++++++++++++++++++++to 4.93311e-005
Heightened Def Con from 4.93311e-005 +++++++++++++++++++++++++++++to 4.93321e-005
Heightened Def Con from 4.93321e-005 +++++++++++++++++++++++++++++to 4.93331e-005
Heightened Def Con from 4.93331e-005 +++++++++++++++++++++++++++++to 4.93341e-005
Heightened Def Con from 4.93341e-005 +++++++++++++++++++++++++++++to 4.93351e-005
Heightened Def Con from 4.93351e-005 +++++++++++++++++++++++++++++to 4.93361e-005
Heightened Def Con from 4.93361e-005 +++++++++++++++++++++++++++++to 4.93371e-005
Heightened Def Con from 4.93371e-005 +++++++++++++++++++++++++++++to 4.93381e-005
Heightened Def Con from 4.93381e-005 +++++++++++++++++++++++++++++to 4.93391e-005
Heightened Def Con from 4.93391e-005 +++++++++++++++++++++++++++++to 4.93401e-005
Heightened Def Con from 4.93401e-005 +++++++++++++++++++++++++++++to 4.93411e-005
Heightened Def Con from 4.93411e-005 +++++++++++++++++++++++++++++to 4.93421e-005
Heightened Def Con from 4.93421e-005 +++++++++++++++++++++++++++++to 4.93431e-005
Heightened Def Con from 4.93431e-005 +++++++++++++++++++++++++++++to 4.93441e-005
Heightened Def Con from 4.93441e-005 +++++++++++++++++++++++++++++to 4.93451e-005
Heightened Def Con from 4.93451e-005 +++++++++++++++++++++++++++++to 4.93461e-005
Heightened Def Con from 4.93461e-005 +++++++++++++++++++++++++++++to 4.93471e-005
Heightened Def Con from 4.93471e-005 +++++++++++++++++++++++++++++to 4.93481e-005
Heightened Def Con from 4.93481e-005 +++++++++++++++++++++++++++++to 4.93491e-005
Heightened Def Con from 4.93491e-005 +++++++++++++++++++++++++++++to 4.93501e-005
Heightened Def Con from 4.93501e-005 +++++++++++++++++++++++++++++to 4.93511e-005
Heightened Def Con from 4.93511e-005 +++++++++++++++++++++++++++++to 4.93521e-005
Heightened Def Con from 4.93521e-005 +++++++++++++++++++++++++++++to 4.93531e-005
Heightened Def Con from 4.93531e-005 +++++++++++++++++++++++++++++to 4.93541e-005
Heightened Def Con from 4.93541e-005 +++++++++++++++++++++++++++++to 4.93551e-005
Heightened Def Con from 4.93551e-005 +++++++++++++++++++++++++++++to 4.93561e-005
Heightened Def Con from 4.93561e-005 +++++++++++++++++++++++++++++to 4.93571e-005
Heightened Def Con from 4.93571e-005 +++++++++++++++++++++++++++++to 4.93581e-005
Heightened Def Con from 4.93581e-005 +++++++++++++++++++++++++++++to 4.93591e-005
Heightened Def Con from 4.93591e-005 +++++++++++++++++++++++++++++to 4.93601e-005
Heightened Def Con from 4.93601e-005 +++++++++++++++++++++++++++++to 4.93611e-005
Heightened Def Con from 4.93611e-005 +++++++++++++++++++++++++++++to 4.93621e-005
Heightened Def Con from 4.93621e-005 +++++++++++++++++++++++++++++to 4.93631e-005
Heightened Def Con from 4.93631e-005 +++++++++++++++++++++++++++++to 4.93641e-005
Heightened Def Con from 4.93641e-005 +++++++++++++++++++++++++++++to 4.93651e-005
Heightened Def Con from 4.93651e-005 +++++++++++++++++++++++++++++to 4.93661e-005
Heightened Def Con from 4.93661e-005 +++++++++++++++++++++++++++++to 4.93671e-005
Heightened Def Con from 4.93671e-005 +++++++++++++++++++++++++++++to 4.93681e-005
Heightened Def Con from 4.93681e-005 +++++++++++++++++++++++++++++to 4.93691e-005
Heightened Def Con from 4.93691e-005 +++++++++++++++++++++++++++++to 4.93701e-005
Heightened Def Con from 4.93701e-005 +++++++++++++++++++++++++++++to 4.93711e-005
Heightened Def Con from 4.93711e-005 +++++++++++++++++++++++++++++to 4.93721e-005
Heightened Def Con from 4.93721e-005 +++++++++++++++++++++++++++++to 4.93731e-005
Heightened Def Con from 4.93731e-005 +++++++++++++++++++++++++++++to 4.93741e-005
Heightened Def Con from 4.93741e-005 +++++++++++++++++++++++++++++to 4.93751e-005
Heightened Def Con from 4.93751e-005 +++++++++++++++++++++++++++++to 4.93761e-005
Heightened Def Con from 4.93761e-005 +++++++++++++++++++++++++++++to 4.93771e-005
Heightened Def Con from 4.93771e-005 +++++++++++++++++++++++++++++to 4.93781e-005
Heightened Def Con from 4.93781e-005 +++++++++++++++++++++++++++++to 4.93791e-005
Heightened Def Con from 4.93791e-005 +++++++++++++++++++++++++++++to 4.93801e-005
Heightened Def Con from 4.93801e-005 +++++++++++++++++++++++++++++to 4.93811e-005
Heightened Def Con from 4.93811e-005 +++++++++++++++++++++++++++++to 4.93821e-005
Heightened Def Con from 4.93821e-005 +++++++++++++++++++++++++++++to 4.93831e-005
Heightened Def Con from 4.93831e-005 +++++++++++++++++++++++++++++to 4.93841e-005
Heightened Def Con from 4.93841e-005 +++++++++++++++++++++++++++++to 4.93851e-005
Heightened Def Con from 4.93851e-005 +++++++++++++++++++++++++++++to 4.93861e-005
Heightened Def Con from 4.93861e-005 +++++++++++++++++++++++++++++to 4.93871e-005
Heightened Def Con from 4.93871e-005 +++++++++++++++++++++++++++++to 4.93881e-005
Heightened Def Con from 4.93881e-005 +++++++++++++++++++++++++++++to 4.93891e-005
Heightened Def Con from 4.93891e-005 +++++++++++++++++++++++++++++to 4.93901e-005
Heightened Def Con from 4.93901e-005 +++++++++++++++++++++++++++++to 4.93911e-005
Heightened Def Con from 4.93911e-005 +++++++++++++++++++++++++++++to 4.93921e-005
Heightened Def Con from 4.93921e-005 +++++++++++++++++++++++++++++to 4.93931e-005
Heightened Def Con from 4.93931e-005 +++++++++++++++++++++++++++++to 4.93941e-005
Heightened Def Con from 4.93941e-005 +++++++++++++++++++++++++++++to 4.93951e-005
Heightened Def Con from 4.93951e-005 +++++++++++++++++++++++++++++to 4.93961e-005
Heightened Def Con from 4.93961e-005 +++++++++++++++++++++++++++++to 4.93971e-005
Heightened Def Con from 4.93971e-005 +++++++++++++++++++++++++++++to 4.93981e-005
Heightened Def Con from 4.93981e-005 +++++++++++++++++++++++++++++to 4.93991e-005
Heightened Def Con from 4.93991e-005 +++++++++++++++++++++++++++++to 4.94001e-005
Heightened Def Con from 4.94001e-005 +++++++++++++++++++++++++++++to 4.94011e-005
Heightened Def Con from 4.94011e-005 +++++++++++++++++++++++++++++to 4.94021e-005
Heightened Def Con from 4.94021e-005 +++++++++++++++++++++++++++++to 4.94031e-005
Heightened Def Con from 4.94031e-005 +++++++++++++++++++++++++++++to 4.94041e-005
Heightened Def Con from 4.94041e-005 +++++++++++++++++++++++++++++to 4.94051e-005
Heightened Def Con from 4.94051e-005 +++++++++++++++++++++++++++++to 4.94061e-005
Heightened Def Con from 4.94061e-005 +++++++++++++++++++++++++++++to 4.94071e-005
Heightened Def Con from 4.94071e-005 +++++++++++++++++++++++++++++to 4.94081e-005
Heightened Def Con from 4.94081e-005 +++++++++++++++++++++++++++++to 4.94091e-005
Heightened Def Con from 4.94091e-005 +++++++++++++++++++++++++++++to 4.94101e-005
Heightened Def Con from 4.94101e-005 +++++++++++++++++++++++++++++to 4.94111e-005
Heightened Def Con from 4.94111e-005 +++++++++++++++++++++++++++++to 4.94121e-005
Heightened Def Con from 4.94121e-005 +++++++++++++++++++++++++++++to 4.94131e-005
Heightened Def Con from 4.94131e-005 +++++++++++++++++++++++++++++to 4.94141e-005
Heightened Def Con from 4.94141e-005 +++++++++++++++++++++++++++++to 4.94151e-005
Heightened Def Con from 4.94151e-005 +++++++++++++++++++++++++++++to 4.94161e-005
Heightened Def Con from 4.94161e-005 +++++++++++++++++++++++++++++to 4.94171e-005
Heightened Def Con from 4.94171e-005 +++++++++++++++++++++++++++++to 4.94181e-005
Heightened Def Con from 4.94181e-005 +++++++++++++++++++++++++++++to 4.94191e-005
Heightened Def Con from 4.94191e-005 +++++++++++++++++++++++++++++to 4.94201e-005
Heightened Def Con from 4.94201e-005 +++++++++++++++++++++++++++++to 4.94211e-005
Heightened Def Con from 4.94211e-005 +++++++++++++++++++++++++++++to 4.94221e-005
Heightened Def Con from 4.94221e-005 +++++++++++++++++++++++++++++to 4.94231e-005
Heightened Def Con from 4.94231e-005 +++++++++++++++++++++++++++++to 4.94241e-005
Heightened Def Con from 4.94241e-005 +++++++++++++++++++++++++++++to 4.94251e-005
Heightened Def Con from 4.94251e-005 +++++++++++++++++++++++++++++to 4.94261e-005
Heightened Def Con from 4.94261e-005 +++++++++++++++++++++++++++++to 4.94271e-005
Heightened Def Con from 4.94271e-005 +++++++++++++++++++++++++++++to 4.94281e-005
Heightened Def Con from 4.94281e-005 +++++++++++++++++++++++++++++to 4.94291e-005
Heightened Def Con from 4.94291e-005 +++++++++++++++++++++++++++++to 4.94301e-005
Heightened Def Con from 4.94301e-005 +++++++++++++++++++++++++++++to 4.94311e-005
Heightened Def Con from 4.94311e-005 +++++++++++++++++++++++++++++to 4.94321e-005
Heightened Def Con from 4.94321e-005 +++++++++++++++++++++++++++++to 4.94331e-005
Heightened Def Con from 4.94331e-005 +++++++++++++++++++++++++++++to 4.94341e-005
Heightened Def Con from 4.94341e-005 +++++++++++++++++++++++++++++to 4.94351e-005
Heightened Def Con from 4.94351e-005 +++++++++++++++++++++++++++++to 4.94361e-005
Heightened Def Con from 4.94361e-005 +++++++++++++++++++++++++++++to 4.94371e-005
Heightened Def Con from 4.94371e-005 +++++++++++++++++++++++++++++to 4.94381e-005
Heightened Def Con from 4.94381e-005 +++++++++++++++++++++++++++++to 4.94391e-005
Heightened Def Con from 4.94391e-005 +++++++++++++++++++++++++++++to 4.94401e-005
Heightened Def Con from 4.94401e-005 +++++++++++++++++++++++++++++to 4.94411e-005
Heightened Def Con from 4.94411e-005 +++++++++++++++++++++++++++++to 4.94421e-005
Heightened Def Con from 4.94421e-005 +++++++++++++++++++++++++++++to 4.94431e-005
Heightened Def Con from 4.94431e-005 +++++++++++++++++++++++++++++to 4.94441e-005
Heightened Def Con from 4.94441e-005 +++++++++++++++++++++++++++++to 4.94451e-005
Heightened Def Con from 4.94451e-005 +++++++++++++++++++++++++++++to 4.94461e-005
Heightened Def Con from 4.94461e-005 +++++++++++++++++++++++++++++to 4.94471e-005
Heightened Def Con from 4.94471e-005 +++++++++++++++++++++++++++++to 4.94481e-005
Heightened Def Con from 4.94481e-005 +++++++++++++++++++++++++++++to 4.94491e-005
Heightened Def Con from 4.94491e-005 +++++++++++++++++++++++++++++to 4.94501e-005
Heightened Def Con from 4.94501e-005 +++++++++++++++++++++++++++++to 4.94511e-005
Heightened Def Con from 4.94511e-005 +++++++++++++++++++++++++++++to 4.94521e-005
Heightened Def Con from 4.94521e-005 +++++++++++++++++++++++++++++to 4.94531e-005
Heightened Def Con from 4.94531e-005 +++++++++++++++++++++++++++++to 4.94541e-005
Heightened Def Con from 4.94541e-005 +++++++++++++++++++++++++++++to 4.94551e-005
Heightened Def Con from 4.94551e-005 +++++++++++++++++++++++++++++to 4.94561e-005
Heightened Def Con from 4.94561e-005 +++++++++++++++++++++++++++++to 4.94571e-005
Heightened Def Con from 4.94571e-005 +++++++++++++++++++++++++++++to 4.94581e-005
Heightened Def Con from 4.94581e-005 +++++++++++++++++++++++++++++to 4.94591e-005
Heightened Def Con from 4.94591e-005 +++++++++++++++++++++++++++++to 4.94601e-005
Heightened Def Con from 4.94601e-005 +++++++++++++++++++++++++++++to 4.94611e-005
Heightened Def Con from 4.94611e-005 +++++++++++++++++++++++++++++to 4.94621e-005
Heightened Def Con from 4.94621e-005 +++++++++++++++++++++++++++++to 4.94631e-005
Heightened Def Con from 4.94631e-005 +++++++++++++++++++++++++++++to 4.94641e-005
Heightened Def Con from 4.94641e-005 +++++++++++++++++++++++++++++to 4.94651e-005
Heightened Def Con from 4.94651e-005 +++++++++++++++++++++++++++++to 4.94661e-005
Heightened Def Con from 4.94661e-005 +++++++++++++++++++++++++++++to 4.94671e-005
Heightened Def Con from 4.94671e-005 +++++++++++++++++++++++++++++to 4.94681e-005
Heightened Def Con from 4.94681e-005 +++++++++++++++++++++++++++++to 4.94691e-005
Heightened Def Con from 4.94691e-005 +++++++++++++++++++++++++++++to 4.94701e-005
Heightened Def Con from 4.94701e-005 +++++++++++++++++++++++++++++to 4.94711e-005
Heightened Def Con from 4.94711e-005 +++++++++++++++++++++++++++++to 4.94721e-005
Heightened Def Con from 4.94721e-005 +++++++++++++++++++++++++++++to 4.94731e-005
Heightened Def Con from 4.94731e-005 +++++++++++++++++++++++++++++to 4.94741e-005
Heightened Def Con from 4.94741e-005 +++++++++++++++++++++++++++++to 4.94751e-005
Heightened Def Con from 4.94751e-005 +++++++++++++++++++++++++++++to 4.94761e-005
Heightened Def Con from 4.94761e-005 +++++++++++++++++++++++++++++to 4.94771e-005
Heightened Def Con from 4.94771e-005 +++++++++++++++++++++++++++++to 4.94781e-005
Heightened Def Con from 4.94781e-005 +++++++++++++++++++++++++++++to 4.94791e-005
Heightened Def Con from 4.94791e-005 +++++++++++++++++++++++++++++to 4.94801e-005
Heightened Def Con from 4.94801e-005 +++++++++++++++++++++++++++++to 4.94811e-005
Heightened Def Con from 4.94811e-005 +++++++++++++++++++++++++++++to 4.94821e-005
Heightened Def Con from 4.94821e-005 +++++++++++++++++++++++++++++to 4.94831e-005
Heightened Def Con from 4.94831e-005 +++++++++++++++++++++++++++++to 4.94841e-005
Heightened Def Con from 4.94841e-005 +++++++++++++++++++++++++++++to 4.94851e-005
Heightened Def Con from 4.94851e-005 +++++++++++++++++++++++++++++to 4.94861e-005
Heightened Def Con from 4.94861e-005 +++++++++++++++++++++++++++++to 4.94871e-005
Heightened Def Con from 4.94871e-005 +++++++++++++++++++++++++++++to 4.94881e-005
Heightened Def Con from 4.94881e-005 +++++++++++++++++++++++++++++to 4.94891e-005
Heightened Def Con from 4.94891e-005 +++++++++++++++++++++++++++++to 4.94901e-005
Heightened Def Con from 4.94901e-005 +++++++++++++++++++++++++++++to 4.94911e-005
Heightened Def Con from 4.94911e-005 +++++++++++++++++++++++++++++to 4.94921e-005
Heightened Def Con from 4.94921e-005 +++++++++++++++++++++++++++++to 4.94931e-005
Heightened Def Con from 4.94931e-005 +++++++++++++++++++++++++++++to 4.94941e-005
Heightened Def Con from 4.94941e-005 +++++++++++++++++++++++++++++to 4.94951e-005
Heightened Def Con from 4.94951e-005 +++++++++++++++++++++++++++++to 4.94961e-005
Heightened Def Con from 4.94961e-005 +++++++++++++++++++++++++++++to 4.94971e-005
Heightened Def Con from 4.94971e-005 +++++++++++++++++++++++++++++to 4.94981e-005
Heightened Def Con from 4.94981e-005 +++++++++++++++++++++++++++++to 4.94991e-005
Heightened Def Con from 4.94991e-005 +++++++++++++++++++++++++++++to 4.95001e-005
Heightened Def Con from 4.95001e-005 +++++++++++++++++++++++++++++to 4.95011e-005
Heightened Def Con from 4.95011e-005 +++++++++++++++++++++++++++++to 4.95021e-005
Heightened Def Con from 4.95021e-005 +++++++++++++++++++++++++++++to 4.95031e-005
Heightened Def Con from 4.95031e-005 +++++++++++++++++++++++++++++to 4.95041e-005
Heightened Def Con from 4.95041e-005 +++++++++++++++++++++++++++++to 4.95051e-005
Heightened Def Con from 4.95051e-005 +++++++++++++++++++++++++++++to 4.95061e-005
Heightened Def Con from 4.95061e-005 +++++++++++++++++++++++++++++to 4.95071e-005
Heightened Def Con from 4.95071e-005 +++++++++++++++++++++++++++++to 4.95081e-005
Heightened Def Con from 4.95081e-005 +++++++++++++++++++++++++++++to 4.95091e-005
Heightened Def Con from 4.95091e-005 +++++++++++++++++++++++++++++to 4.95101e-005
Heightened Def Con from 4.95101e-005 +++++++++++++++++++++++++++++to 4.95111e-005
Heightened Def Con from 4.95111e-005 +++++++++++++++++++++++++++++to 4.95121e-005
Heightened Def Con from 4.95121e-005 +++++++++++++++++++++++++++++to 4.95131e-005
Heightened Def Con from 4.95131e-005 +++++++++++++++++++++++++++++to 4.95141e-005
Heightened Def Con from 4.95141e-005 +++++++++++++++++++++++++++++to 4.95151e-005
Heightened Def Con from 4.95151e-005 +++++++++++++++++++++++++++++to 4.95161e-005
Heightened Def Con from 4.95161e-005 +++++++++++++++++++++++++++++to 4.95171e-005
Heightened Def Con from 4.95171e-005 +++++++++++++++++++++++++++++to 4.95181e-005
Heightened Def Con from 4.95181e-005 +++++++++++++++++++++++++++++to 4.95191e-005
Heightened Def Con from 4.95191e-005 +++++++++++++++++++++++++++++to 4.95201e-005
Heightened Def Con from 4.95201e-005 +++++++++++++++++++++++++++++to 4.95211e-005
Heightened Def Con from 4.95211e-005 +++++++++++++++++++++++++++++to 4.95221e-005
Heightened Def Con from 4.95221e-005 +++++++++++++++++++++++++++++to 4.95231e-005
Heightened Def Con from 4.95231e-005 +++++++++++++++++++++++++++++to 4.95241e-005
Heightened Def Con from 4.95241e-005 +++++++++++++++++++++++++++++to 4.95251e-005
Heightened Def Con from 4.95251e-005 +++++++++++++++++++++++++++++to 4.95261e-005
Heightened Def Con from 4.95261e-005 +++++++++++++++++++++++++++++to 4.95271e-005
Heightened Def Con from 4.95271e-005 +++++++++++++++++++++++++++++to 4.95281e-005
Heightened Def Con from 4.95281e-005 +++++++++++++++++++++++++++++to 4.95291e-005
Heightened Def Con from 4.95291e-005 +++++++++++++++++++++++++++++to 4.95301e-005
Heightened Def Con from 4.95301e-005 +++++++++++++++++++++++++++++to 4.95311e-005
Heightened Def Con from 4.95311e-005 +++++++++++++++++++++++++++++to 4.95321e-005
Heightened Def Con from 4.95321e-005 +++++++++++++++++++++++++++++to 4.95331e-005
Heightened Def Con from 4.95331e-005 +++++++++++++++++++++++++++++to 4.95341e-005
Heightened Def Con from 4.95341e-005 +++++++++++++++++++++++++++++to 4.95351e-005
Heightened Def Con from 4.95351e-005 +++++++++++++++++++++++++++++to 4.95361e-005
Heightened Def Con from 4.95361e-005 +++++++++++++++++++++++++++++to 4.95371e-005
Heightened Def Con from 4.95371e-005 +++++++++++++++++++++++++++++to 4.95381e-005
Heightened Def Con from 4.95381e-005 +++++++++++++++++++++++++++++to 4.95391e-005
Heightened Def Con from 4.95391e-005 +++++++++++++++++++++++++++++to 4.95401e-005
Heightened Def Con from 4.95401e-005 +++++++++++++++++++++++++++++to 4.95411e-005
Heightened Def Con from 4.95411e-005 +++++++++++++++++++++++++++++to 4.95421e-005
Heightened Def Con from 4.95421e-005 +++++++++++++++++++++++++++++to 4.95431e-005
Heightened Def Con from 4.95431e-005 +++++++++++++++++++++++++++++to 4.95441e-005
Heightened Def Con from 4.95441e-005 +++++++++++++++++++++++++++++to 4.95451e-005
Heightened Def Con from 4.95451e-005 +++++++++++++++++++++++++++++to 4.95461e-005
Heightened Def Con from 4.95461e-005 +++++++++++++++++++++++++++++to 4.95471e-005
Heightened Def Con from 4.95471e-005 +++++++++++++++++++++++++++++to 4.95481e-005
Heightened Def Con from 4.95481e-005 +++++++++++++++++++++++++++++to 4.95491e-005
Heightened Def Con from 4.95491e-005 +++++++++++++++++++++++++++++to 4.95501e-005
Heightened Def Con from 4.95501e-005 +++++++++++++++++++++++++++++to 4.95511e-005
Heightened Def Con from 4.95511e-005 +++++++++++++++++++++++++++++to 4.95521e-005
Heightened Def Con from 4.95521e-005 +++++++++++++++++++++++++++++to 4.95531e-005
Heightened Def Con from 4.95531e-005 +++++++++++++++++++++++++++++to 4.95541e-005
Heightened Def Con from 4.95541e-005 +++++++++++++++++++++++++++++to 4.95551e-005
Heightened Def Con from 4.95551e-005 +++++++++++++++++++++++++++++to 4.95561e-005
Heightened Def Con from 4.95561e-005 +++++++++++++++++++++++++++++to 4.95571e-005
Heightened Def Con from 4.95571e-005 +++++++++++++++++++++++++++++to 4.95581e-005
Heightened Def Con from 4.95581e-005 +++++++++++++++++++++++++++++to 4.95591e-005
Heightened Def Con from 4.95591e-005 +++++++++++++++++++++++++++++to 4.95601e-005
Heightened Def Con from 4.95601e-005 +++++++++++++++++++++++++++++to 4.95611e-005
Heightened Def Con from 4.95611e-005 +++++++++++++++++++++++++++++to 4.95621e-005
Heightened Def Con from 4.95621e-005 +++++++++++++++++++++++++++++to 4.95631e-005
Heightened Def Con from 4.95631e-005 +++++++++++++++++++++++++++++to 4.95641e-005
Heightened Def Con from 4.95641e-005 +++++++++++++++++++++++++++++to 4.95651e-005
Heightened Def Con from 4.95651e-005 +++++++++++++++++++++++++++++to 4.95661e-005
Heightened Def Con from 4.95661e-005 +++++++++++++++++++++++++++++to 4.95671e-005
Heightened Def Con from 4.95671e-005 +++++++++++++++++++++++++++++to 4.95681e-005
Heightened Def Con from 4.95681e-005 +++++++++++++++++++++++++++++to 4.95691e-005
Heightened Def Con from 4.95691e-005 +++++++++++++++++++++++++++++to 4.95701e-005
Heightened Def Con from 4.95701e-005 +++++++++++++++++++++++++++++to 4.95711e-005
Heightened Def Con from 4.95711e-005 +++++++++++++++++++++++++++++to 4.95721e-005
Heightened Def Con from 4.95721e-005 +++++++++++++++++++++++++++++to 4.95731e-005
Heightened Def Con from 4.95731e-005 +++++++++++++++++++++++++++++to 4.95741e-005
Heightened Def Con from 4.95741e-005 +++++++++++++++++++++++++++++to 4.95751e-005
Heightened Def Con from 4.95751e-005 +++++++++++++++++++++++++++++to 4.95761e-005
Heightened Def Con from 4.95761e-005 +++++++++++++++++++++++++++++to 4.95771e-005
Heightened Def Con from 4.95771e-005 +++++++++++++++++++++++++++++to 4.95781e-005
Heightened Def Con from 4.95781e-005 +++++++++++++++++++++++++++++to 4.95791e-005
Heightened Def Con from 4.95791e-005 +++++++++++++++++++++++++++++to 4.95801e-005
Heightened Def Con from 4.95801e-005 +++++++++++++++++++++++++++++to 4.95811e-005
Heightened Def Con from 4.95811e-005 +++++++++++++++++++++++++++++to 4.95821e-005
Heightened Def Con from 4.95821e-005 +++++++++++++++++++++++++++++to 4.95831e-005
Heightened Def Con from 4.95831e-005 +++++++++++++++++++++++++++++to 4.95841e-005
Heightened Def Con from 4.95841e-005 +++++++++++++++++++++++++++++to 4.95851e-005
Heightened Def Con from 4.95851e-005 +++++++++++++++++++++++++++++to 4.95861e-005
Heightened Def Con from 4.95861e-005 +++++++++++++++++++++++++++++to 4.95871e-005
Heightened Def Con from 4.95871e-005 +++++++++++++++++++++++++++++to 4.95881e-005
Heightened Def Con from 4.95881e-005 +++++++++++++++++++++++++++++to 4.95891e-005
Heightened Def Con from 4.95891e-005 +++++++++++++++++++++++++++++to 4.95901e-005
Heightened Def Con from 4.95901e-005 +++++++++++++++++++++++++++++to 4.95911e-005
Heightened Def Con from 4.95911e-005 +++++++++++++++++++++++++++++to 4.95921e-005
Heightened Def Con from 4.95921e-005 +++++++++++++++++++++++++++++to 4.95931e-005
Heightened Def Con from 4.95931e-005 +++++++++++++++++++++++++++++to 4.95941e-005
Heightened Def Con from 4.95941e-005 +++++++++++++++++++++++++++++to 4.95951e-005
Heightened Def Con from 4.95951e-005 +++++++++++++++++++++++++++++to 4.95961e-005
Heightened Def Con from 4.95961e-005 +++++++++++++++++++++++++++++to 4.95971e-005
Heightened Def Con from 4.95971e-005 +++++++++++++++++++++++++++++to 4.95981e-005
Heightened Def Con from 4.95981e-005 +++++++++++++++++++++++++++++to 4.95991e-005
Heightened Def Con from 4.95991e-005 +++++++++++++++++++++++++++++to 4.96001e-005
Heightened Def Con from 4.96001e-005 +++++++++++++++++++++++++++++to 4.96011e-005
Heightened Def Con from 4.96011e-005 +++++++++++++++++++++++++++++to 4.96021e-005
Heightened Def Con from 4.96021e-005 +++++++++++++++++++++++++++++to 4.96031e-005
Heightened Def Con from 4.96031e-005 +++++++++++++++++++++++++++++to 4.96041e-005
Heightened Def Con from 4.96041e-005 +++++++++++++++++++++++++++++to 4.96051e-005
Heightened Def Con from 4.96051e-005 +++++++++++++++++++++++++++++to 4.96061e-005
Heightened Def Con from 4.96061e-005 +++++++++++++++++++++++++++++to 4.96071e-005
Heightened Def Con from 4.96071e-005 +++++++++++++++++++++++++++++to 4.96081e-005
Heightened Def Con from 4.96081e-005 +++++++++++++++++++++++++++++to 4.96091e-005
Heightened Def Con from 4.96091e-005 +++++++++++++++++++++++++++++to 4.96101e-005
Heightened Def Con from 4.96101e-005 +++++++++++++++++++++++++++++to 4.96111e-005
Heightened Def Con from 4.96111e-005 +++++++++++++++++++++++++++++to 4.96121e-005
Heightened Def Con from 4.96121e-005 +++++++++++++++++++++++++++++to 4.96131e-005
Heightened Def Con from 4.96131e-005 +++++++++++++++++++++++++++++to 4.96141e-005
Heightened Def Con from 4.96141e-005 +++++++++++++++++++++++++++++to 4.96151e-005
Heightened Def Con from 4.96151e-005 +++++++++++++++++++++++++++++to 4.96161e-005
Heightened Def Con from 4.96161e-005 +++++++++++++++++++++++++++++to 4.96171e-005
Heightened Def Con from 4.96171e-005 +++++++++++++++++++++++++++++to 4.96181e-005
Heightened Def Con from 4.96181e-005 +++++++++++++++++++++++++++++to 4.96191e-005
Heightened Def Con from 4.96191e-005 +++++++++++++++++++++++++++++to 4.96201e-005
Heightened Def Con from 4.96201e-005 +++++++++++++++++++++++++++++to 4.96211e-005
Heightened Def Con from 4.96211e-005 +++++++++++++++++++++++++++++to 4.96221e-005
Heightened Def Con from 4.96221e-005 +++++++++++++++++++++++++++++to 4.96231e-005
Heightened Def Con from 4.96231e-005 +++++++++++++++++++++++++++++to 4.96241e-005
Heightened Def Con from 4.96241e-005 +++++++++++++++++++++++++++++to 4.96251e-005
Heightened Def Con from 4.96251e-005 +++++++++++++++++++++++++++++to 4.96261e-005
Heightened Def Con from 4.96261e-005 +++++++++++++++++++++++++++++to 4.96271e-005
Heightened Def Con from 4.96271e-005 +++++++++++++++++++++++++++++to 4.96281e-005
Heightened Def Con from 4.96281e-005 +++++++++++++++++++++++++++++to 4.96291e-005
Heightened Def Con from 4.96291e-005 +++++++++++++++++++++++++++++to 4.96301e-005
Heightened Def Con from 4.96301e-005 +++++++++++++++++++++++++++++to 4.96311e-005
Heightened Def Con from 4.96311e-005 +++++++++++++++++++++++++++++to 4.96321e-005
Heightened Def Con from 4.96321e-005 +++++++++++++++++++++++++++++to 4.96331e-005
Heightened Def Con from 4.96331e-005 +++++++++++++++++++++++++++++to 4.96341e-005
Heightened Def Con from 4.96341e-005 +++++++++++++++++++++++++++++to 4.96351e-005
Heightened Def Con from 4.96351e-005 +++++++++++++++++++++++++++++to 4.96361e-005
Heightened Def Con from 4.96361e-005 +++++++++++++++++++++++++++++to 4.96371e-005
Heightened Def Con from 4.96371e-005 +++++++++++++++++++++++++++++to 4.96381e-005
Heightened Def Con from 4.96381e-005 +++++++++++++++++++++++++++++to 4.96391e-005
Heightened Def Con from 4.96391e-005 +++++++++++++++++++++++++++++to 4.96401e-005
Heightened Def Con from 4.96401e-005 +++++++++++++++++++++++++++++to 4.96411e-005
Heightened Def Con from 4.96411e-005 +++++++++++++++++++++++++++++to 4.96421e-005
Heightened Def Con from 4.96421e-005 +++++++++++++++++++++++++++++to 4.96431e-005
Heightened Def Con from 4.96431e-005 +++++++++++++++++++++++++++++to 4.96441e-005
Heightened Def Con from 4.96441e-005 +++++++++++++++++++++++++++++to 4.96451e-005
Heightened Def Con from 4.96451e-005 +++++++++++++++++++++++++++++to 4.96461e-005
Heightened Def Con from 4.96461e-005 +++++++++++++++++++++++++++++to 4.96471e-005
Heightened Def Con from 4.96471e-005 +++++++++++++++++++++++++++++to 4.96481e-005
Heightened Def Con from 4.96481e-005 +++++++++++++++++++++++++++++to 4.96491e-005
Heightened Def Con from 4.96491e-005 +++++++++++++++++++++++++++++to 4.96501e-005
Heightened Def Con from 4.96501e-005 +++++++++++++++++++++++++++++to 4.96511e-005
Heightened Def Con from 4.96511e-005 +++++++++++++++++++++++++++++to 4.96521e-005
Heightened Def Con from 4.96521e-005 +++++++++++++++++++++++++++++to 4.96531e-005
Heightened Def Con from 4.96531e-005 +++++++++++++++++++++++++++++to 4.96541e-005
Heightened Def Con from 4.96541e-005 +++++++++++++++++++++++++++++to 4.96551e-005
Heightened Def Con from 4.96551e-005 +++++++++++++++++++++++++++++to 4.96561e-005
Heightened Def Con from 4.96561e-005 +++++++++++++++++++++++++++++to 4.96571e-005
Heightened Def Con from 4.96571e-005 +++++++++++++++++++++++++++++to 4.96581e-005
Heightened Def Con from 4.96581e-005 +++++++++++++++++++++++++++++to 4.96591e-005
Heightened Def Con from 4.96591e-005 +++++++++++++++++++++++++++++to 4.96601e-005
Heightened Def Con from 4.96601e-005 +++++++++++++++++++++++++++++to 4.96611e-005
Heightened Def Con from 4.96611e-005 +++++++++++++++++++++++++++++to 4.96621e-005
Heightened Def Con from 4.96621e-005 +++++++++++++++++++++++++++++to 4.96631e-005
Heightened Def Con from 4.96631e-005 +++++++++++++++++++++++++++++to 4.96641e-005
Heightened Def Con from 4.96641e-005 +++++++++++++++++++++++++++++to 4.96651e-005
Heightened Def Con from 4.96651e-005 +++++++++++++++++++++++++++++to 4.96661e-005
Heightened Def Con from 4.96661e-005 +++++++++++++++++++++++++++++to 4.96671e-005
Heightened Def Con from 4.96671e-005 +++++++++++++++++++++++++++++to 4.96681e-005
Heightened Def Con from 4.96681e-005 +++++++++++++++++++++++++++++to 4.96691e-005
Heightened Def Con from 4.96691e-005 +++++++++++++++++++++++++++++to 4.96701e-005
Heightened Def Con from 4.96701e-005 +++++++++++++++++++++++++++++to 4.96711e-005
Heightened Def Con from 4.96711e-005 +++++++++++++++++++++++++++++to 4.96721e-005
Heightened Def Con from 4.96721e-005 +++++++++++++++++++++++++++++to 4.96731e-005
Heightened Def Con from 4.96731e-005 +++++++++++++++++++++++++++++to 4.96741e-005
Heightened Def Con from 4.96741e-005 +++++++++++++++++++++++++++++to 4.96751e-005
Heightened Def Con from 4.96751e-005 +++++++++++++++++++++++++++++to 4.96761e-005
Heightened Def Con from 4.96761e-005 +++++++++++++++++++++++++++++to 4.96771e-005
Heightened Def Con from 4.96771e-005 +++++++++++++++++++++++++++++to 4.96781e-005
Heightened Def Con from 4.96781e-005 +++++++++++++++++++++++++++++to 4.96791e-005
Heightened Def Con from 4.96791e-005 +++++++++++++++++++++++++++++to 4.96801e-005
Heightened Def Con from 4.96801e-005 +++++++++++++++++++++++++++++to 4.96811e-005
Heightened Def Con from 4.96811e-005 +++++++++++++++++++++++++++++to 4.96821e-005
Heightened Def Con from 4.96821e-005 +++++++++++++++++++++++++++++to 4.96831e-005
Heightened Def Con from 4.96831e-005 +++++++++++++++++++++++++++++to 4.96841e-005
Heightened Def Con from 4.96841e-005 +++++++++++++++++++++++++++++to 4.96851e-005
Heightened Def Con from 4.96851e-005 +++++++++++++++++++++++++++++to 4.96861e-005
Heightened Def Con from 4.96861e-005 +++++++++++++++++++++++++++++to 4.96871e-005
Heightened Def Con from 4.96871e-005 +++++++++++++++++++++++++++++to 4.96881e-005
Heightened Def Con from 4.96881e-005 +++++++++++++++++++++++++++++to 4.96891e-005
Heightened Def Con from 4.96891e-005 +++++++++++++++++++++++++++++to 4.96901e-005
Heightened Def Con from 4.96901e-005 +++++++++++++++++++++++++++++to 4.96911e-005
Heightened Def Con from 4.96911e-005 +++++++++++++++++++++++++++++to 4.96921e-005
Heightened Def Con from 4.96921e-005 +++++++++++++++++++++++++++++to 4.96931e-005
Heightened Def Con from 4.96931e-005 +++++++++++++++++++++++++++++to 4.96941e-005
Heightened Def Con from 4.96941e-005 +++++++++++++++++++++++++++++to 4.96951e-005
Heightened Def Con from 4.96951e-005 +++++++++++++++++++++++++++++to 4.96961e-005
Heightened Def Con from 4.96961e-005 +++++++++++++++++++++++++++++to 4.96971e-005
Heightened Def Con from 4.96971e-005 +++++++++++++++++++++++++++++to 4.96981e-005
Heightened Def Con from 4.96981e-005 +++++++++++++++++++++++++++++to 4.96991e-005
Heightened Def Con from 4.96991e-005 +++++++++++++++++++++++++++++to 4.97001e-005
Heightened Def Con from 4.97001e-005 +++++++++++++++++++++++++++++to 4.97011e-005
Heightened Def Con from 4.97011e-005 +++++++++++++++++++++++++++++to 4.97021e-005
Heightened Def Con from 4.97021e-005 +++++++++++++++++++++++++++++to 4.97031e-005
Heightened Def Con from 4.97031e-005 +++++++++++++++++++++++++++++to 4.97041e-005
Heightened Def Con from 4.97041e-005 +++++++++++++++++++++++++++++to 4.97051e-005
Heightened Def Con from 4.97051e-005 +++++++++++++++++++++++++++++to 4.97061e-005
Heightened Def Con from 4.97061e-005 +++++++++++++++++++++++++++++to 4.97071e-005
Heightened Def Con from 4.97071e-005 +++++++++++++++++++++++++++++to 4.97081e-005
Heightened Def Con from 4.97081e-005 +++++++++++++++++++++++++++++to 4.97091e-005
Heightened Def Con from 4.97091e-005 +++++++++++++++++++++++++++++to 4.97101e-005
Heightened Def Con from 4.97101e-005 +++++++++++++++++++++++++++++to 4.97111e-005
Heightened Def Con from 4.97111e-005 +++++++++++++++++++++++++++++to 4.97121e-005
Heightened Def Con from 4.97121e-005 +++++++++++++++++++++++++++++to 4.97131e-005
Heightened Def Con from 4.97131e-005 +++++++++++++++++++++++++++++to 4.97141e-005
Heightened Def Con from 4.97141e-005 +++++++++++++++++++++++++++++to 4.97151e-005
Heightened Def Con from 4.97151e-005 +++++++++++++++++++++++++++++to 4.97161e-005
Heightened Def Con from 4.97161e-005 +++++++++++++++++++++++++++++to 4.97171e-005
Heightened Def Con from 4.97171e-005 +++++++++++++++++++++++++++++to 4.97181e-005
Heightened Def Con from 4.97181e-005 +++++++++++++++++++++++++++++to 4.97191e-005
Heightened Def Con from 4.97191e-005 +++++++++++++++++++++++++++++to 4.97201e-005
Heightened Def Con from 4.97201e-005 +++++++++++++++++++++++++++++to 4.97211e-005
Heightened Def Con from 4.97211e-005 +++++++++++++++++++++++++++++to 4.97221e-005
Heightened Def Con from 4.97221e-005 +++++++++++++++++++++++++++++to 4.97231e-005
Heightened Def Con from 4.97231e-005 +++++++++++++++++++++++++++++to 4.97241e-005
Heightened Def Con from 4.97241e-005 +++++++++++++++++++++++++++++to 4.97251e-005
Heightened Def Con from 4.97251e-005 +++++++++++++++++++++++++++++to 4.97261e-005
Heightened Def Con from 4.97261e-005 +++++++++++++++++++++++++++++to 4.97271e-005
Heightened Def Con from 4.97271e-005 +++++++++++++++++++++++++++++to 4.97281e-005
Heightened Def Con from 4.97281e-005 +++++++++++++++++++++++++++++to 4.97291e-005
Heightened Def Con from 4.97291e-005 +++++++++++++++++++++++++++++to 4.97301e-005
Heightened Def Con from 4.97301e-005 +++++++++++++++++++++++++++++to 4.97311e-005
Heightened Def Con from 4.97311e-005 +++++++++++++++++++++++++++++to 4.97321e-005
Heightened Def Con from 4.97321e-005 +++++++++++++++++++++++++++++to 4.97331e-005
Heightened Def Con from 4.97331e-005 +++++++++++++++++++++++++++++to 4.97341e-005
Heightened Def Con from 4.97341e-005 +++++++++++++++++++++++++++++to 4.97351e-005
Heightened Def Con from 4.97351e-005 +++++++++++++++++++++++++++to 4.97361e-005
Heightened Def Con from 4.97361e-005 +++++++++++++++++++++to 4.97371e-005
Heightened Def Con from 4.97371e-005 ++++++++++++++++++to 4.97381e-005
Heightened Def Con from 7.88718e-005 to 7.88718e-005
Heightened Def Con from 7.88718e-005 +++++++++++++++++++++++++++++to 7.88728e-005
Heightened Def Con from 7.88728e-005 +++++++++++++++++++++++++++to 7.88738e-005
Heightened Def Con from 7.88738e-005 ++++++++++++++++++++++to 7.88748e-005
Heightened Def Con from 0.0309493 ++++++++++++++++++++++++to 0.0309493
Heightened Def Con from 0.0309493 +++++++++++++++++++++to 0.0309493
Heightened Def Con from 0.0309493 +++++++++++++++++to 0.0309493
Heightened Def Con from 0.0309493 ++++++++++++++++to 0.0309493

Date: Tue Sep 21 10:29:41 2021
Total elapsed time: 22.636 seconds.

tnom = 27
temp = 27
method = modified trap
totiter = 4187749
traniter = 4187353
tranpoints = 382790
accept = 37268
rejected = 379955
matrix size = 46
fillins = 42
solver = Normal
Matrix Compiler1: 5.13 KB object code size  1.2/1.1/[0.3]
Matrix Compiler2: 4.68 KB object code size  0.4/0.6/[0.3]

