Circuit: * D:\vlsi advanced\comparator_amp_diff_integrator\comparator_amp_diff_integrator.asc

Direct Newton iteration for .op point succeeded.

Date: Fri Jul 23 22:45:23 2021
Total elapsed time: 0.205 seconds.

tnom = 27
temp = 27
method = modified trap
totiter = 3682
traniter = 3656
tranpoints = 1106
accept = 776
rejected = 330
matrix size = 116
fillins = 169
solver = Normal
Thread vector: 8.0/4.8[3] 2.4/2.9[1] 2.6/1.9[3] 0.5/1.3[1]  2592/500
Matrix Compiler1: 13.84 KB object code size  2.4/1.2/[0.7]
Matrix Compiler2: 12.50 KB object code size  1.0/1.3/[0.7]

