Circuit: * D:\vlsi advanced\2_differential_amplifier_EnablePin\2_Differential_amplifier_EnablePin.asc

Instance "m5": Length shorter than recommended for a level 1 MOSFET.
Instance "m4": Length shorter than recommended for a level 1 MOSFET.
Instance "m3": Length shorter than recommended for a level 1 MOSFET.
Instance "m2": Length shorter than recommended for a level 1 MOSFET.
Instance "m1": Length shorter than recommended for a level 1 MOSFET.
Direct Newton iteration failed to find .op point.  (Use ".option noopiter" to skip.)
Starting Gmin stepping
Gmin = 10
Gmin = 1.07374
Gmin = 0.115292
Gmin = 0.0123794
Gmin = 0.00132923
Gmin = 0.000142725
Gmin = 1.5325e-005
Gmin = 1.6455e-006
Gmin = 1.76685e-007
Gmin = 1.89714e-008
Gmin = 2.03704e-009
Gmin = 2.18725e-010
Gmin = 2.34854e-011
Gmin = 2.52173e-012
Gmin = 2.70769e-013
Gmin = 0
Gmin stepping succeeded in finding the operating point.

.step temp=-40°C
.step temp=27°C
.step temp=125°C


Measurement: vgs1
  step	v(vg1)-v(vs1)
     1	0.475176
     2	0.428868
     3	0.358715

Measurement: vds1
  step	v(vd1)-v(vs1)
     1	1.01469
     2	0.688867
     3	0.080465

Measurement: vgs_greaterthan_vth_1
  step	vgs1-0.4
     1	0.0751762
     2	0.0288675
     3	-0.0412853

Measurement: vds_greaterthan_vgs-vth_1
  step	vds1-(vgs1-0.4)
     1	0.939517
     2	0.66
     3	0.12175

Measurement: vgs2
  step	v(vg2)-v(vs1)
     1	0.475176
     2	0.428868
     3	0.358715

Measurement: vds2
  step	v(vd2)-v(vs1)
     1	1.01469
     2	0.688867
     3	0.080465

Measurement: vgs_greaterthan_vth_2
  step	vgs2-0.4
     1	0.0751762
     2	0.0288675
     3	-0.0412853

Measurement: vds_greaterthan_vgs-vth_2
  step	vds2-(vgs2-0.4)
     1	0.939517
     2	0.66
     3	0.12175

Measurement: vgs3
  step	v(vg3)
     1	0.5
     2	0.5
     3	0.5

Measurement: vds3
  step	v(vs1)
     1	0.124824
     2	0.171132
     3	0.241285

Measurement: vgs_greaterthan_vth_3
  step	vgs3-0.4
     1	0.1
     2	0.1
     3	0.1

Measurement: vds_greaterthan_vgs-vth_3
  step	vds3-(vgs3-0.4)
     1	0.0248238
     2	0.0711325
     3	0.141285


Date: Thu Jul 22 15:55:27 2021
Total elapsed time: 0.877 seconds.

tnom = 27
temp = 125
method = modified trap
totiter = 858
traniter = 830
tranpoints = 416
accept = 258
rejected = 158
matrix size = 15
fillins = 0
solver = Normal
Matrix Compiler1: 578 bytes object code size  0.4/0.3/[0.2]
Matrix Compiler2: off  [0.3]/0.4/0.3

