Circuit: * D:\vlsi advanced\2_differential_amplifier_EnablePin\Draft6.asc

Instance "m5": Length shorter than recommended for a level 1 MOSFET.
Instance "m4": Length shorter than recommended for a level 1 MOSFET.
Instance "m3": Length shorter than recommended for a level 1 MOSFET.
Instance "m2": Length shorter than recommended for a level 1 MOSFET.
Instance "m1": Length shorter than recommended for a level 1 MOSFET.
Direct Newton iteration failed to find .op point.  (Use ".option noopiter" to skip.)
Starting Gmin stepping
Gmin = 10
Gmin = 1.07374
Gmin = 0.115292
Gmin = 0.0123794
Gmin = 0.00132923
Gmin = 0.000142725
Gmin = 1.5325e-005
Gmin = 1.6455e-006
Gmin = 1.76685e-007
Gmin = 1.89714e-008
Gmin = 2.03704e-009
Gmin = 2.18725e-010
Gmin = 2.34854e-011
Gmin = 2.52173e-012
Gmin = 2.70769e-013
Gmin = 0
Gmin stepping succeeded in finding the operating point.


vgs1: v(vg1)-v(vs1)=0.428868
vds1: v(vd1)-v(vs1)=0.688867
vgs_greaterthan_vth_1: vgs1-0.4=0.0288675
vds_greaterthan_vgs-vth_1: vds1-(vgs1-0.4)=0.66
vgs2: v(vg2)-v(vs1)=0.428868
vds2: v(vd2)-v(vs1)=0.688867
vgs_greaterthan_vth_2: vgs2-0.4=0.0288675
vds_greaterthan_vgs-vth_2: vds2-(vgs2-0.4)=0.66
vgs3: v(vg3)=0.5
vds3: v(vs1)=0.171132
vgs_greaterthan_vth_3: vgs3-0.4=0.1
vds_greaterthan_vgs-vth_3: vds3-(vgs3-0.4)=0.0711325


Date: Thu Jul 22 16:34:12 2021
Total elapsed time: 0.672 seconds.

tnom = 27
temp = 27
method = modified trap
totiter = 1189
traniter = 830
tranpoints = 416
accept = 258
rejected = 158
matrix size = 15
fillins = 0
solver = Normal
Matrix Compiler1: 578 bytes object code size  0.3/0.2/[0.1]
Matrix Compiler2: 1.09 KB object code size  0.3/0.5/[0.3]

